%chk=C1CCCC1.chk
#P B3LYP/6-31G*

Generated by Multiwfn

  0  1
C      1.06020000    1.28470000   -0.13780000
C      0.09210000    0.82480000    0.94140000
C      0.21530000   -0.68810000    0.89670000
C      0.27980000   -0.98810000   -0.59300000
C      1.01090000    0.20120000   -1.21380000
H      0.79980000    2.27150000   -0.53220000
H      2.07480000    1.34860000    0.27330000
H     -0.92990000    1.13040000    0.68790000
H      0.33920000    1.23590000    1.92430000
H      1.14200000   -1.00850000    1.38740000
H     -0.62350000   -1.19090000    1.38630000
H      0.78240000   -1.93740000   -0.80130000
H     -0.73440000   -1.05190000   -1.00520000
H      2.02450000   -0.07520000   -1.52410000
H      0.48050000    0.55240000   -2.10550000
 
