%nproc=12
%mem=12GB
%chk=00000319.chk
#p opt freq b3lyp/6-31g*

CN(C)CCCN

0 1
C -1.3651 -0.7303 -1.0693
N -0.1924 -1.0704 -0.2697
C -0.5371 -2.0130 0.7914
C 0.5242 0.1120 0.2335
C -0.2372 1.0203 1.2112
C 0.5597 2.2655 1.6127
N 1.7216 1.9501 2.4356
H -2.1680 -0.2824 -0.4743
H -1.7667 -1.6277 -1.5536
H -1.0992 -0.0350 -1.8731
H 0.3501 -2.2837 1.3744
H -0.9232 -2.9439 0.3609
H -1.2957 -1.6190 1.4761
H 1.4528 -0.2350 0.7034
H 0.8477 0.7091 -0.6292
H -1.1703 1.3623 0.7488
H -0.5156 0.4645 2.1144
H -0.0958 2.9293 2.1873
H 0.8781 2.8176 0.7215
H 2.1847 2.8159 2.7111
H 2.4079 1.4283 1.8924


