%nproc=12
%mem=12GB
%chk=00000346.chk
#p opt freq b3lyp/6-31g*

O=C(Nc1ccccc1)c1ccccc1

0 2
O 0.1684 -0.3998 -2.4642
C 0.2172 -0.0499 -1.2914
N -0.8499 0.1244 -0.4286
C -2.2234 0.0155 -0.7318
C -3.1263 0.1525 0.3313
C -4.5040 0.0637 0.1141
C -4.9926 -0.1606 -1.1698
C -4.1034 -0.2943 -2.2333
C -2.7244 -0.2055 -2.0156
C 1.5565 0.1818 -0.6798
C 1.7705 1.1975 0.2620
C 3.0416 1.3818 0.8107
C 4.0994 0.5620 0.4160
C 3.8940 -0.4376 -0.5348
C 2.6261 -0.6249 -1.0870
H -0.6297 0.2812 0.5457
H -2.7724 0.3274 1.3436
H -5.1942 0.1691 0.9470
H -6.0631 -0.2308 -1.3434
H -4.4781 -0.4681 -3.2389
H -2.0677 -0.3101 -2.8736
H 0.9691 1.8709 0.5533
H 3.2121 2.1728 1.5371
H 5.0895 0.7100 0.8409
H 4.7216 -1.0677 -0.8513
H 2.4709 -1.4005 -1.8346


