%nproc=12
%mem=12GB
%chk=00000169.chk
#p opt freq b3lyp/6-31g*

C1=CCC1

0 1
C -1.6940 -0.7265 -0.2174
C -0.6937 -0.7011 -1.1166
C 0.2231 -1.5530 -0.2679
C -0.9234 -1.5821 0.7627
H -2.6914 -0.2976 -0.1891
H -0.5722 -0.2437 -2.0942
H 0.4869 -2.5332 -0.6799
H 1.1389 -1.0676 0.0868
H -0.6813 -1.1138 1.7230
H -1.3333 -2.5794 0.9563


