%nproc=12
%mem=12GB
%chk=00000356.chk
#p opt freq b3lyp/6-31g*

c1ccc(-c2cc[nH]n2)cc1

0 1
C -1.2264 -1.0500 -1.7057
C -1.9474 -0.0948 -0.9944
C -1.3341 1.1013 -0.6111
C 0.0080 1.3617 -0.9322
C 0.6397 2.6239 -0.5226
C 1.9754 3.0618 -0.7541
C 2.0698 4.3034 -0.1747
N 0.8441 4.5523 0.3579
N -0.0368 3.5618 0.1654
C 0.7193 0.3877 -1.6495
C 0.1058 -0.8097 -2.0334
H -1.7025 -1.9802 -2.0041
H -2.9872 -0.2757 -0.7354
H -1.9144 1.8358 -0.0555
H 2.7665 2.5423 -1.2745
H 2.8809 5.0126 -0.0972
H 0.5357 5.3746 0.8658
H 1.7592 0.5405 -1.9224
H 0.6705 -1.5542 -2.5887


