%nproc=12
%mem=12GB
%chk=00000001.chk
#p opt freq b3lyp/6-31g*

CCCC(C)C

0 1
C 1.9149 -1.9613 -0.7404
C 2.0823 -0.5117 -0.3223
C 0.9836 0.0289 0.5992
C -0.4492 0.1541 0.0437
C -0.5033 0.7703 -1.3526
C -1.2305 -1.1592 0.0913
H 1.6879 -2.6006 0.1181
H 1.1240 -2.0726 -1.4859
H 2.8401 -2.3268 -1.1983
H 3.0350 -0.4257 0.2158
H 2.1825 0.1189 -1.2127
H 1.3003 1.0365 0.9027
H 0.9651 -0.5624 1.5237
H -0.9760 0.8429 0.7189
H -1.5396 0.9781 -1.6405
H 0.0460 1.7171 -1.3819
H -0.0791 0.1024 -2.1089
H -2.2897 -0.9775 -0.1230
H -0.8739 -1.8850 -0.6423
H -1.1694 -1.6160 1.0845


