%nproc=12
%mem=12GB
%chk=00000042.chk
#p opt freq b3lyp/6-31g*

CCCOC=O

0 1
C 0.1246 -1.0521 0.1175
C -0.3283 0.3250 -0.3466
C 0.5580 0.8846 -1.4549
O 0.4483 0.0466 -2.6126
C 1.2094 0.4483 -3.6602
O 1.9449 1.4212 -3.6963
H 0.0739 -1.7833 -0.6952
H -0.5183 -1.4065 0.9295
H 1.1539 -1.0209 0.4887
H -1.3611 0.2480 -0.7059
H -0.3214 1.0132 0.5059
H 1.6018 0.9232 -1.1212
H 0.2217 1.8965 -1.7095
H 1.0626 -0.2510 -4.4978


