%nproc=12
%mem=12GB
%chk=00000368.chk
#p opt freq b3lyp/6-31g*

Cc1cccc2ccccc12

0 1
C -2.3152 1.1825 -0.1127
C -1.3597 0.4149 -0.9884
C -1.8014 -0.0035 -2.2543
C -0.9586 -0.7152 -3.1014
C 0.3380 -1.0191 -2.6956
C 0.8111 -0.6165 -1.4383
C 2.1222 -0.9307 -1.0429
C 2.6098 -0.5390 0.2028
C 1.7916 0.1726 1.0700
C 0.4855 0.4926 0.6912
C -0.0375 0.1097 -0.5645
H -3.2852 1.3243 -0.6013
H -2.4956 0.6397 0.8207
H -1.9130 2.1762 0.1096
H -2.8113 0.2249 -2.5882
H -1.3112 -1.0338 -4.0787
H 0.9811 -1.5765 -3.3731
H 2.7780 -1.4876 -1.7088
H 3.6263 -0.7902 0.4930
H 2.1654 0.4811 2.0427
H -0.1245 1.0507 1.3972


