%nproc=12
%mem=12GB
%chk=00000014.chk
#p opt freq b3lyp/6-31g*

c1ccc2ccccc2c1

0 1
C -0.7475 -3.1789 -0.8445
C 0.4368 -2.4492 -0.8004
C 0.4142 -1.0690 -1.0086
C -0.7946 -0.4012 -1.2636
C -0.8350 0.9866 -1.4752
C -2.0451 1.6351 -1.7275
C -3.2294 0.9053 -1.7715
C -3.2068 -0.4748 -1.5634
C -1.9980 -1.1426 -1.3083
C -1.9576 -2.5304 -1.0968
H -0.7312 -4.2534 -0.6826
H 1.3796 -2.9529 -0.6040
H 1.3498 -0.5159 -0.9703
H 0.0800 1.5737 -1.4446
H -2.0615 2.7096 -1.8894
H -4.1722 1.4091 -1.9679
H -4.1425 -1.0279 -1.6016
H -2.8726 -3.1175 -1.1274


