%nproc=12
%mem=12GB
%chk=00000334.chk
#p opt freq b3lyp/6-31g*

c1ccc(Cc2ccccc2)cc1

0 1
C -2.3906 -1.5263 0.3086
C -1.3098 -1.5638 1.1874
C -0.4489 -0.4690 1.2852
C -0.6607 0.6753 0.5027
C 0.2671 1.8644 0.6133
C 1.0535 2.1588 -0.6445
C 0.8498 3.3541 -1.3488
C 1.5808 3.6281 -2.5063
C 2.5227 2.7123 -2.9709
C 2.7352 1.5216 -2.2792
C 2.0060 1.2460 -1.1214
C -1.7534 0.7013 -0.3765
C -2.6124 -0.3946 -0.4733
H -3.0592 -2.3795 0.2318
H -1.1363 -2.4467 1.7969
H 0.3897 -0.5162 1.9760
H -0.3317 2.7376 0.9038
H 0.9810 1.7181 1.4347
H 0.1185 4.0802 -1.0013
H 1.4145 4.5567 -3.0460
H 3.0901 2.9255 -3.8728
H 3.4671 0.8049 -2.6420
H 2.1790 0.3100 -0.5948
H -1.9362 1.5760 -0.9970
H -3.4530 -0.3650 -1.1614


