%nproc=12
%mem=12GB
%chk=00000200.chk
#p opt freq b3lyp/6-31g*

CC(O)C#N

0 2
C 0.0367 -1.2693 -1.0623
C 0.1334 -1.5635 0.4264
O 1.5213 -1.6640 0.7676
C -0.5419 -0.5174 1.2184
N -1.0705 0.2883 1.8663
H -1.0053 -1.2084 -1.3932
H 0.5316 -0.3231 -1.3109
H 0.5422 -2.0501 -1.6410
H -0.3239 -2.5369 0.6335
H 1.5791 -1.7174 1.7383


