%nproc=12
%mem=12GB
%chk=00000218.chk
#p opt freq b3lyp/6-31g*

CC(=O)OCCOC(C)=O

0 1
C -3.8924 -0.7767 0.4883
C -2.5873 -0.1431 0.1141
O -2.3564 1.0547 0.1961
O -1.7201 -1.0974 -0.3213
C -0.4086 -0.6394 -0.7061
C 0.5480 -0.7184 0.4837
O 0.2291 0.2629 1.4843
C 0.6570 1.5265 1.2083
C 0.2047 2.4697 2.2799
O 1.3295 1.8477 0.2382
H -4.5840 -0.0039 0.8360
H -3.7372 -1.4945 1.2976
H -4.3299 -1.2681 -0.3844
H -0.4584 0.3650 -1.1399
H -0.0637 -1.3187 -1.4925
H 1.5902 -0.6078 0.1624
H 0.4559 -1.6952 0.9706
H -0.8828 2.4271 2.3794
H 0.6875 2.2132 3.2260
H 0.4856 3.4906 2.0057


