%nproc=12
%mem=12GB
%chk=00000382.chk
#p opt freq b3lyp/6-31g*

c1ccc2ncccc2c1

0 2
C -2.1457 0.5463 -2.0071
C -0.9409 0.1013 -2.5393
C 0.2247 0.1602 -1.7691
C 0.2196 0.6554 -0.4718
N 1.3675 0.6914 0.2290
C 1.3257 1.1794 1.4882
C 0.1761 1.6432 2.0989
C -1.0080 1.6049 1.3730
C -1.0065 1.1059 0.0637
C -2.1809 1.0483 -0.7077
H -3.0549 0.5029 -2.6012
H -0.9010 -0.2922 -3.5516
H 1.1638 -0.1894 -2.1913
H 2.2783 1.1868 2.0105
H 0.2011 2.0245 3.1131
H -1.9267 1.9635 1.8295
H -3.1271 1.3944 -0.2988


