%nproc=12
%mem=12GB
%chk=00000166.chk
#p opt freq b3lyp/6-31g*

C1CCCC1

0 1
C 0.5441 -0.9119 0.1120
C 1.4401 0.0528 -0.6496
C 1.2370 1.4098 0.0225
C 0.4957 1.1352 1.3299
C 0.5770 -0.3703 1.5304
H -0.4769 -0.8737 -0.2856
H 0.8979 -1.9449 0.0503
H 1.2030 0.0803 -1.7174
H 2.4884 -0.2534 -0.5500
H 0.6526 2.0833 -0.6137
H 2.2028 1.8921 0.2086
H -0.5522 1.4425 1.2298
H 0.9238 1.6872 2.1720
H 1.5229 -0.6365 2.0169
H -0.2437 -0.7531 2.1436


