%nproc=12
%mem=12GB
%chk=00000348.chk
#p opt freq b3lyp/6-31g*

O=C(c1ccccc1)N1CCCCC1

0 2
O 1.8056 -0.0811 0.5731
C 0.6966 0.3456 0.2590
C 0.5534 0.9565 -1.0818
C 1.0057 0.2492 -2.1997
C 0.9021 0.8211 -3.4680
C 0.3633 2.1008 -3.6148
C -0.0646 2.8169 -2.4951
C 0.0365 2.2495 -1.2244
N -0.4168 0.3012 1.1028
C -1.7946 0.2338 0.6108
C -2.2695 -1.2203 0.5783
C -2.0864 -1.8949 1.9401
C -0.6543 -1.7323 2.4555
C -0.2335 -0.2639 2.4364
H 1.4413 -0.7399 -2.0795
H 1.2502 0.2735 -4.3403
H 0.2894 2.5465 -4.6040
H -0.4669 3.8199 -2.6129
H -0.2767 2.8144 -0.3504
H -2.4188 0.8260 1.2900
H -1.8961 0.6606 -0.3884
H -3.3231 -1.2622 0.2811
H -1.6964 -1.7747 -0.1755
H -2.3362 -2.9590 1.8649
H -2.7838 -1.4508 2.6610
H -0.5768 -2.1308 3.4729
H 0.0239 -2.3183 1.8229
H -0.8499 0.3190 3.1311
H 0.8074 -0.1640 2.7617


