%nproc=12
%mem=12GB
%chk=00000311.chk
#p opt freq b3lyp/6-31g*

NCCCC(=O)O

0 2
N 0.0319 0.3513 2.0105
C 1.4847 0.3104 1.9385
C 1.9847 0.0586 0.5150
C 1.6584 1.1882 -0.4617
C 0.2138 1.2686 -0.8742
O -0.4318 2.2954 -1.0161
O -0.3236 0.0796 -1.2104
H -0.2587 0.4621 2.9816
H -0.3529 -0.5403 1.6974
H 1.8915 1.2547 2.3161
H 1.8516 -0.4870 2.5942
H 3.0761 -0.0457 0.5589
H 1.5986 -0.8998 0.1471
H 2.2448 1.0608 -1.3790
H 1.9436 2.1514 -0.0232
H -1.2396 0.3186 -1.4633


