%nproc=12
%mem=12GB
%chk=00000372.chk
#p opt freq b3lyp/6-31g*

Cc1ccc2ccccc2c1C

0 1
C 0.7182 -2.1903 -2.5864
C 0.0912 -1.2257 -1.6155
C -0.6948 -1.7451 -0.5799
C -1.3009 -0.9031 0.3489
C -1.1401 0.4836 0.2714
C -1.7610 1.3146 1.2196
C -1.6170 2.6990 1.1652
C -0.8493 3.2693 0.1602
C -0.2267 2.4537 -0.7888
C -0.3514 1.0440 -0.7637
C 0.2693 0.1748 -1.7158
C 1.1121 0.7679 -2.8223
H 0.3582 -1.9965 -3.6018
H 1.8092 -2.1062 -2.5555
H 0.4655 -3.2285 -2.3448
H -0.8436 -2.8189 -0.4861
H -1.9038 -1.3455 1.1387
H -2.3666 0.8842 2.0144
H -2.1036 3.3274 1.9059
H -0.7310 4.3484 0.1094
H 0.3651 2.9433 -1.5582
H 0.5033 1.4354 -3.4414
H 1.9527 1.3258 -2.3963
H 1.5387 0.0183 -3.4926


