%nproc=12
%mem=12GB
%chk=00000363.chk
#p opt freq b3lyp/6-31g*

c1ccc(Oc2ccccc2)cc1

0 1
C -3.3448 -1.7213 -0.9774
C -2.7809 -2.9918 -1.0998
C -1.4059 -3.1285 -1.2927
C -0.5951 -1.9943 -1.3473
O 0.7474 -2.1967 -1.5739
C 1.6341 -1.4864 -0.7967
C 2.7167 -0.8965 -1.4499
C 3.6710 -0.1908 -0.7165
C 3.5496 -0.0894 0.6699
C 2.4790 -0.6991 1.3252
C 1.5231 -1.4058 0.5938
C -1.1607 -0.7205 -1.2483
C -2.5364 -0.5864 -1.0552
H -4.4165 -1.6150 -0.8294
H -3.4125 -3.8748 -1.0494
H -0.9656 -4.1162 -1.3959
H 2.8132 -0.9834 -2.5285
H 4.5106 0.2756 -1.2249
H 4.2946 0.4586 1.2414
H 2.3920 -0.6298 2.4063
H 0.7025 -1.8932 1.1126
H -0.5404 0.1679 -1.3262
H -2.9783 0.4030 -0.9720


