%nproc=12
%mem=12GB
%chk=00000209.chk
#p opt freq b3lyp/6-31g*

O=C(O)CCC(=O)O

0 1
O -0.6936 0.7108 -1.6638
C -0.4441 1.1258 -0.5453
O -0.6598 2.4159 -0.2249
C 0.1480 0.3521 0.6003
C 0.1815 -1.1416 0.3015
C -1.2020 -1.7311 0.3053
O -2.2295 -1.1970 0.6859
O -1.2109 -3.0003 -0.1449
H -1.0535 2.8018 -1.0354
H 1.1700 0.7149 0.7540
H -0.4383 0.5524 1.5039
H 0.7637 -1.6539 1.0749
H 0.6445 -1.3304 -0.6734
H -2.1550 -3.2615 -0.1075


