%nproc=12
%mem=12GB
%chk=00000278.chk
#p opt freq b3lyp/6-31g*

CC(=O)C1CCCCC1

0 1
C 1.3629 0.4584 1.1333
C 1.7310 0.4769 -0.3294
O 2.8642 0.1529 -0.6923
C 0.6708 0.8707 -1.3559
C -0.0224 2.2009 -1.0192
C -1.4066 2.0006 -0.4101
C -2.3344 1.2058 -1.3300
C -1.6053 0.1966 -2.2174
C -0.3076 -0.2894 -1.5849
H 2.1954 0.0439 1.7099
H 0.4879 -0.1728 1.2990
H 1.1716 1.4732 1.4877
H 1.2218 1.0394 -2.2926
H -0.1390 2.7800 -1.9451
H 0.5950 2.8161 -0.3551
H -1.8619 2.9714 -0.1827
H -1.3118 1.4744 0.5471
H -2.8988 1.8935 -1.9716
H -3.0784 0.6871 -0.7131
H -1.3791 0.6628 -3.1849
H -2.2659 -0.6518 -2.4295
H -0.5382 -0.8083 -0.6470
H 0.1635 -1.0375 -2.2342


