%nproc=12
%mem=12GB
%chk=00000304.chk
#p opt freq b3lyp/6-31g*

Cc1ccnc(C)c1

0 2
C 0.2937 0.4676 -2.0004
C 0.0139 -0.2863 -0.7361
C -1.2935 -0.6012 -0.3676
C -1.4966 -1.3281 0.7941
N -0.5005 -1.7630 1.5951
C 0.7663 -1.4658 1.2233
C 1.8745 -1.9558 2.1062
C 1.0606 -0.7398 0.0709
H -0.5269 1.1533 -2.2363
H 1.2025 1.0706 -1.9021
H 0.4207 -0.2312 -2.8329
H -2.1416 -0.2898 -0.9678
H -2.4986 -1.5907 1.1205
H 2.4611 -1.1112 2.4807
H 2.5309 -2.6315 1.5491
H 1.4749 -2.5015 2.9671
H 2.0931 -0.5310 -0.1923


