%nproc=12
%mem=12GB
%chk=00000143.chk
#p opt freq b3lyp/6-31g*

CC(C)SC(C)C

0 1
C -0.8776 0.5944 3.3216
C -1.5591 -0.0232 2.1042
C -1.1071 -1.4591 1.8626
S -1.3679 1.0380 0.6173
C 0.4273 0.9020 0.2683
C 0.6420 0.0004 -0.9434
C 0.9784 2.3013 0.0072
H -1.1056 0.0081 4.2190
H -1.2331 1.6148 3.5019
H 0.2118 0.6225 3.2234
H -2.6367 -0.0446 2.3045
H -1.3666 -2.0850 2.7240
H -1.6023 -1.8911 0.9863
H -0.0245 -1.5382 1.7245
H 0.9569 0.4821 1.1271
H 1.7116 -0.0915 -1.1633
H 0.1565 0.4003 -1.8410
H 0.2587 -1.0102 -0.7684
H 2.0537 2.2542 -0.1984
H 0.8421 2.9514 0.8788
H 0.4997 2.7767 -0.8566


