%nproc=12
%mem=12GB
%chk=00000260.chk
#p opt freq b3lyp/6-31g*

N#CC1=CCC=C1

0 2
N -1.7318 -4.0877 1.1605
C -1.1282 -3.1339 0.8904
C -0.3920 -1.9699 0.5607
C 0.9271 -1.7913 0.7335
C 1.3158 -0.4219 0.2571
C -0.0003 0.1314 -0.2083
C -0.9663 -0.7805 -0.0221
H 1.6174 -2.5108 1.1495
H 2.0343 -0.4783 -0.5657
H 1.7308 0.1777 1.0724
H -0.1364 1.1171 -0.6283
H -2.0124 -0.6608 -0.2639


