%nproc=12
%mem=12GB
%chk=00000171.chk
#p opt freq b3lyp/6-31g*

CC1=C(C)CCC1

0 1
C -0.5602 0.4212 -1.3495
C -1.6576 -0.4220 -0.7993
C -1.7432 -1.0362 0.3916
C -0.7659 -1.0563 1.5153
C -3.0190 -1.8159 0.5146
C -3.8546 -1.2965 -0.6513
C -2.8637 -0.7011 -1.6468
H 0.2727 0.5374 -0.6517
H -0.9359 1.4216 -1.5871
H -0.1648 -0.0254 -2.2674
H 0.1323 -0.4711 1.3036
H -1.2238 -0.6456 2.4209
H -0.4515 -2.0839 1.7238
H -2.8202 -2.8885 0.4169
H -3.5263 -1.6334 1.4670
H -4.4705 -2.0822 -1.1007
H -4.5379 -0.5137 -0.2966
H -3.2699 0.2074 -2.1021
H -2.6151 -1.4158 -2.4387


