%nproc=12
%mem=12GB
%chk=00000003.chk
#p opt freq b3lyp/6-31g*

C=CCCCC

0 1
C -1.4192 2.3458 0.8221
C -0.8088 1.2979 0.2545
C -0.6166 -0.0306 0.9288
C -1.4220 -1.1640 0.2838
C -1.0810 -1.4763 -1.1768
C 0.3617 -1.9096 -1.3852
H -1.5206 3.2855 0.2878
H -1.8312 2.2928 1.8250
H -0.4061 1.4073 -0.7503
H -0.9105 0.0395 1.9840
H 0.4516 -0.2746 0.9309
H -1.2767 -2.0732 0.8809
H -2.4913 -0.9241 0.3455
H -1.2995 -0.6128 -1.8147
H -1.7390 -2.2854 -1.5169
H 0.5143 -2.2186 -2.4244
H 1.0597 -1.0935 -1.1774
H 0.6152 -2.7564 -0.7397


