%nproc=12
%mem=12GB
%chk=00000155.chk
#p opt freq b3lyp/6-31g*

CCOP(OCC)OCC

0 2
C -0.3521 -1.6192 2.7931
C -0.3296 -0.8909 1.4608
O -0.5478 0.4948 1.7145
P -0.3305 1.5754 0.5277
O 1.2456 1.3260 0.2505
C 2.1503 1.9923 1.1263
C 3.5638 1.6314 0.7068
O -0.9213 0.7299 -0.7198
C -0.9657 1.4039 -1.9733
C -1.5532 0.4524 -2.9998
H 0.4296 -1.2332 3.4558
H -0.1980 -2.6928 2.6532
H -1.3087 -1.4626 3.3025
H 0.6390 -1.0641 0.9770
H -1.1287 -1.2876 0.8238
H 1.9898 1.6731 2.1636
H 2.0181 3.0793 1.0577
H 4.2990 2.1215 1.3511
H 3.7156 0.5481 0.7571
H 3.7466 1.9314 -0.3304
H 0.0429 1.6978 -2.2895
H -1.5978 2.2981 -1.9050
H -0.9439 -0.4541 -3.0778
H -2.5584 0.1365 -2.7018
H -1.6090 0.9263 -3.9838


