%nproc=12
%mem=12GB
%chk=00000032.chk
#p opt freq b3lyp/6-31g*

CCC(=O)CC

0 1
C -1.9621 1.0314 -0.3083
C -0.8016 0.1704 0.1576
C -0.3844 -0.8572 -0.8806
O -0.9896 -1.0112 -1.9414
C 0.8111 -1.7226 -0.5393
C 0.4079 -2.8855 0.3445
H -2.8469 0.4203 -0.5155
H -1.7067 1.5732 -1.2250
H -2.2256 1.7644 0.4604
H -1.0836 -0.3566 1.0743
H 0.0611 0.8100 0.3714
H 1.2466 -2.0912 -1.4747
H 1.5734 -1.1055 -0.0527
H -0.3710 -3.4895 -0.1327
H 0.0157 -2.5368 1.3051
H 1.2694 -3.5303 0.5430


