%nproc=12
%mem=12GB
%chk=00000208.chk
#p opt freq b3lyp/6-31g*

O=C(O)CC(=O)O

0 1
O 2.0346 -2.0449 1.3929
C 0.9306 -1.6666 1.7448
O 0.0477 -2.5476 2.2611
C 0.3493 -0.3000 1.5981
C 1.3549 0.7874 1.7804
O 2.2949 0.8061 2.5562
O 1.0816 1.8717 1.0244
H 0.5421 -3.3949 2.2810
H -0.0919 -0.2393 0.5978
H -0.4373 -0.1448 2.3439
H 1.7932 2.5070 1.2546


