%nproc=12
%mem=12GB
%chk=00000242.chk
#p opt freq b3lyp/6-31g*

O=[N+]([O-])Cc1ccccc1

0 2
O -2.3667 -2.7462 1.3802
N -1.1972 -2.5546 1.7433
O -0.3369 -3.4340 1.8947
C -0.8005 -1.1416 2.0674
C -0.2669 -0.5069 0.8106
C -1.1282 0.1654 -0.0703
C -0.6324 0.7490 -1.2371
C 0.7255 0.6655 -1.5375
C 1.5898 -0.0040 -0.6738
C 1.0979 -0.5889 0.4939
H -1.6873 -0.6248 2.4487
H -0.0500 -1.1796 2.8638
H -2.1943 0.2338 0.1402
H -1.3072 1.2650 -1.9158
H 1.1095 1.1172 -2.4486
H 2.6481 -0.0753 -0.9132
H 1.7891 -1.1160 1.1498


