%nproc=12
%mem=12GB
%chk=00000033.chk
#p opt freq b3lyp/6-31g*

CC(C)C(=O)C(C)C

0 1
C 1.3033 -0.4692 -1.7770
C 0.2552 -1.1386 -0.8971
C 0.8660 -2.2500 -0.0500
C -0.5512 -0.1829 -0.0137
O -1.6798 -0.5212 0.3593
C 0.0680 1.1366 0.4554
C -1.0236 2.1063 0.9138
C 1.0631 0.8960 1.5839
H 2.1203 -0.0424 -1.1866
H 0.8588 0.3358 -2.3717
H 1.7416 -1.1937 -2.4718
H -0.4785 -1.5951 -1.5756
H 1.6481 -1.8711 0.6144
H 1.3117 -3.0214 -0.6868
H 0.1061 -2.7292 0.5768
H 0.5738 1.6107 -0.3912
H -1.5574 1.7254 1.7916
H -0.5942 3.0792 1.1755
H -1.7610 2.2661 0.1194
H 1.9295 0.3277 1.2339
H 0.6059 0.3309 2.4036
H 1.4357 1.8435 1.9875


