%nproc=12
%mem=12GB
%chk=00000104.chk
#p opt freq b3lyp/6-31g*

O=C(Nc1ccccc1)Nc1ccccc1

0 1
O 1.8374 -0.4840 -0.5990
C 1.0047 0.3259 -0.9830
N 1.0589 1.6948 -0.7554
C 2.1057 2.4257 -0.1554
C 1.8624 3.7761 0.1303
C 2.8515 4.5718 0.7150
C 4.0960 4.0257 1.0154
C 4.3499 2.6868 0.7283
C 3.3599 1.8905 0.1431
N -0.1355 0.0133 -1.7116
C -0.6147 -1.2697 -2.0498
C -0.0971 -2.4578 -1.5311
C -0.6374 -3.6915 -1.9089
C -1.7025 -3.7474 -2.8043
C -2.2316 -2.5686 -3.3219
C -1.6917 -1.3360 -2.9444
H 0.1970 2.1975 -0.8961
H 0.9004 4.2286 -0.0937
H 2.6496 5.6167 0.9356
H 4.8679 4.6405 1.4706
H 5.3209 2.2547 0.9572
H 3.6042 0.8550 -0.0733
H -0.5853 0.7864 -2.1758
H 0.7256 -2.4600 -0.8227
H -0.2216 -4.6082 -1.4982
H -2.1188 -4.7082 -3.0955
H -3.0640 -2.6075 -4.0195
H -2.1245 -0.4319 -3.3637


