%nproc=12
%mem=12GB
%chk=00000381.chk
#p opt freq b3lyp/6-31g*

Cc1c(C)c2ccccc2c2ccccc12

0 1
C -1.0123 2.7841 -1.3111
C -0.1796 1.6541 -0.7372
C 0.5533 1.8566 0.4606
C 0.6041 3.2359 1.0888
C 1.2132 0.7643 1.0892
C 1.8454 0.8931 2.3541
C 2.5027 -0.1642 2.9796
C 2.5445 -1.3940 2.3576
C 1.9225 -1.5562 1.1192
C 1.2393 -0.5032 0.4485
C 0.5960 -0.6761 -0.8267
C 0.6233 -1.9033 -1.5468
C 0.0040 -2.0743 -2.7853
C -0.6676 -1.0148 -3.3577
C -0.7193 0.2030 -2.6829
C -0.1102 0.4061 -1.4164
H -0.4323 3.3414 -2.0527
H -1.9346 2.4131 -1.7687
H -1.3632 3.4721 -0.5361
H 1.5793 3.4363 1.5432
H 0.4932 4.0313 0.3458
H -0.1810 3.3356 1.8442
H 1.8234 1.8349 2.8964
H 2.9722 -0.0201 3.9484
H 3.0507 -2.2321 2.8283
H 1.9817 -2.5501 0.6863
H 1.1444 -2.7712 -1.1542
H 0.0576 -3.0322 -3.2949
H -1.1478 -1.1248 -4.3258
H -1.2427 1.0112 -3.1874


