%nproc=12
%mem=12GB
%chk=00000034.chk
#p opt freq b3lyp/6-31g*

CC(C)(C)C(=O)C(C)(C)C

0 1
C -2.0047 1.9215 -0.3369
C -1.2376 0.7381 0.3068
C -2.2978 -0.2313 0.8356
C -0.4032 1.3118 1.4604
C -0.3063 0.1289 -0.7811
O -0.0666 0.7953 -1.7991
C 0.3365 -1.2817 -0.6447
C 1.4965 -1.3732 -1.6690
C 0.9481 -1.5590 0.7311
C -0.6825 -2.3684 -1.0146
H -2.5873 1.5890 -1.2042
H -1.3197 2.7060 -0.6799
H -2.6993 2.3838 0.3741
H -1.8658 -1.0426 1.4252
H -2.8702 -0.6768 0.0146
H -3.0105 0.2825 1.4918
H -0.0044 0.5312 2.1125
H 0.4462 1.8931 1.0840
H -1.0055 1.9717 2.0957
H 2.2418 -0.5886 -1.4922
H 2.0095 -2.3402 -1.6091
H 1.1346 -1.2597 -2.6978
H 0.1927 -1.6466 1.5147
H 1.6458 -0.7655 1.0203
H 1.5059 -2.5031 0.7322
H -1.4207 -2.5311 -0.2257
H -0.1897 -3.3329 -1.1846
H -1.2281 -2.1054 -1.9279


