%nproc=12
%mem=12GB
%chk=00000131.chk
#p opt freq b3lyp/6-31g*

O/N=C/c1ccccc1

0 2
O 2.6824 1.4145 0.9765
N 1.6979 0.4548 0.7132
C 0.8498 0.9467 -0.1339
C -0.3140 0.1818 -0.6190
C -1.1821 0.7859 -1.5334
C -2.2902 0.0802 -2.0059
C -2.5286 -1.2227 -1.5661
C -1.6611 -1.8241 -0.6534
C -0.5519 -1.1231 -0.1779
H 3.2588 0.9517 1.6127
H 0.9740 1.9725 -0.5263
H -1.0067 1.7997 -1.8830
H -2.9686 0.5450 -2.7171
H -3.3921 -1.7709 -1.9351
H -1.8481 -2.8390 -0.3117
H 0.1206 -1.5968 0.5332


