%nproc=12
%mem=12GB
%chk=00000213.chk
#p opt freq b3lyp/6-31g*

CC(S)C(=O)O

0 1
C -0.9214 -1.3660 -0.4453
C 0.3100 -1.1807 -1.3187
S -0.1150 -1.4852 -3.0699
C 0.8584 0.2228 -1.1452
O 0.6093 1.2083 -1.8214
O 1.6753 0.3286 -0.0752
H -1.7099 -0.6462 -0.6948
H -0.6698 -1.2097 0.6099
H -1.3316 -2.3774 -0.5390
H 1.0860 -1.9035 -1.0466
H -0.6863 -0.2880 -3.2861
H 1.9479 1.2710 -0.0755


