%nproc=12
%mem=12GB
%chk=00000173.chk
#p opt freq b3lyp/6-31g*

C1CCNCC1

0 2
C 0.0784 2.4060 -0.4864
C -0.2797 1.9071 0.9068
C -1.7937 1.9512 1.1403
N -2.6001 1.6568 -0.0471
C -1.8796 0.8561 -1.0278
C -0.6684 1.6198 -1.5675
H -0.1854 3.4683 -0.5659
H 1.1594 2.3398 -0.6524
H 0.2305 2.5092 1.6670
H 0.0809 0.8771 1.0233
H -2.0451 1.2458 1.9413
H -2.0787 2.9469 1.4983
H -3.4625 1.1903 0.2304
H -2.5470 0.6111 -1.8615
H -1.5694 -0.0988 -0.5855
H 0.0153 0.9047 -2.0407
H -0.9824 2.3153 -2.3558


