%nproc=12
%mem=12GB
%chk=00000043.chk
#p opt freq b3lyp/6-31g*

COC(=O)c1ccccc1

0 1
C -3.8268 -0.7834 -0.7513
O -2.6628 -0.0634 -0.3435
C -1.4958 -0.6740 -0.6696
O -1.3885 -1.7395 -1.2564
C -0.3324 0.1346 -0.2129
C -0.4813 1.3557 0.4593
C 0.6456 2.0747 0.8662
C 1.9231 1.5800 0.6050
C 2.0792 0.3664 -0.0631
C 0.9556 -0.3551 -0.4713
H -4.7051 -0.2096 -0.4428
H -3.8489 -0.8917 -1.8402
H -3.8634 -1.7620 -0.2625
H -1.4675 1.7599 0.6732
H 0.5262 3.0215 1.3874
H 2.7985 2.1414 0.9226
H 3.0752 -0.0193 -0.2667
H 1.0882 -1.3017 -0.9922


