%nproc=12
%mem=12GB
%chk=00000280.chk
#p opt freq b3lyp/6-31g*

CSC1CCCC1

0 1
C 1.1944 -0.8173 -0.0596
S -0.5139 -0.2655 -0.2871
C -0.3510 1.4624 0.3038
C -0.2535 1.5604 1.8243
C -1.6924 1.4656 2.3267
C -2.5761 1.9272 1.1681
C -1.6281 2.2506 0.0149
H 1.2934 -1.8364 -0.4434
H 1.8813 -0.1722 -0.6134
H 1.4645 -0.8229 0.9988
H 0.5089 1.9202 -0.1948
H 0.1496 2.5452 2.0941
H 0.3960 0.8127 2.2880
H -1.9387 0.4318 2.5951
H -1.8423 2.0788 3.2212
H -3.2705 1.1278 0.8854
H -3.1783 2.8000 1.4409
H -1.3993 3.3242 0.0387
H -2.0732 2.0409 -0.9633


