%nproc=12
%mem=12GB
%chk=00000306.chk
#p opt freq b3lyp/6-31g*

Cc1cccc(C)n1

0 2
C 1.4481 1.4732 -0.3517
C 0.1345 0.7836 -0.1378
C 0.0904 -0.4539 0.4953
C -1.1439 -1.0671 0.6784
C -2.2945 -0.4307 0.2265
C -2.1729 0.8060 -0.3978
C -3.3925 1.5202 -0.8973
N -0.9776 1.4155 -0.5832
H 1.9347 1.6665 0.6094
H 1.3068 2.4319 -0.8611
H 2.1047 0.8527 -0.9695
H 0.9994 -0.9347 0.8410
H -1.2087 -2.0335 1.1696
H -3.2667 -0.8932 0.3602
H -3.9069 0.9111 -1.6471
H -3.1230 2.4750 -1.3604
H -4.0769 1.7249 -0.0682


