%nproc=12
%mem=12GB
%chk=00000027.chk
#p opt freq b3lyp/6-31g*

OCCCCO

0 1
O 0.0190 3.9366 0.3147
C -0.4527 2.8882 1.1496
C -0.8744 1.6840 0.3163
C 0.3011 1.0856 -0.4653
C -0.1206 -0.1186 -1.2986
O -0.5923 -1.1670 -0.4637
H -0.7218 4.2116 -0.2525
H 0.3473 2.6199 1.8467
H -1.2977 3.2668 1.7337
H -1.6526 1.9885 -0.3939
H -1.3084 0.9282 0.9806
H 1.0793 0.7811 0.2450
H 0.7351 1.8414 -1.1295
H -0.9206 0.1497 -1.9956
H 0.7244 -0.4972 -1.8826
H 0.1485 -1.4420 0.1035


