%nproc=12
%mem=12GB
%chk=00000268.chk
#p opt freq b3lyp/6-31g*

C=C(C)[C@@H]1CC=C(C)CC1

0 1
C -1.1815 2.2391 0.0826
C -0.7319 1.4496 -0.9084
C -1.2381 1.6472 -2.3158
C 0.3085 0.3420 -0.7350
C -0.3396 -1.0536 -0.8753
C 0.5755 -2.1882 -0.5059
C 1.7435 -2.0259 0.1398
C 2.6510 -3.1802 0.4519
C 2.2179 -0.6686 0.5942
C 1.1184 0.3984 0.5738
H -0.8458 2.1389 1.1089
H -1.9160 3.0179 -0.1036
H -0.4018 1.8302 -2.9984
H -1.9180 2.5024 -2.3936
H -1.7827 0.7624 -2.6587
H 1.0355 0.4644 -1.5522
H -0.6615 -1.2017 -1.9133
H -1.2389 -1.1233 -0.2500
H 0.2488 -3.1826 -0.8018
H 3.6319 -3.0260 -0.0091
H 2.7856 -3.2762 1.5341
H 2.2527 -4.1298 0.0793
H 2.6138 -0.7350 1.6148
H 3.0459 -0.3537 -0.0529
H 0.4563 0.2373 1.4351
H 1.5797 1.3853 0.7021


