%nproc=12
%mem=12GB
%chk=00000375.chk
#p opt freq b3lyp/6-31g*

c1cc2ccc3cccc4ccc(c1)c2c34

0 1
C 0.5717 3.1962 -1.8540
C -0.6575 2.7370 -1.3821
C -0.7455 1.5284 -0.6756
C -1.9718 1.0509 -0.1938
C -2.0431 -0.1550 0.5084
C -0.8899 -0.9148 0.7471
C -0.9450 -2.1272 1.4503
C 0.2132 -2.8697 1.6782
C 1.4424 -2.4104 1.2064
C 1.5304 -1.2018 0.4998
C 2.7567 -0.7243 0.0180
C 2.8280 0.4816 -0.6842
C 1.6748 1.2413 -0.9229
C 1.7299 2.4538 -1.6261
C 0.4286 0.7748 -0.4440
C 0.3563 -0.4482 0.2682
H 0.6272 4.1343 -2.4002
H -1.5490 3.3309 -1.5705
H -2.8864 1.6154 -0.3613
H -3.0112 -0.4963 0.8683
H -1.8938 -2.5030 1.8266
H 0.1577 -3.8077 2.2244
H 2.3339 -3.0044 1.3947
H 3.6713 -1.2888 0.1855
H 3.7961 0.8228 -1.0441
H 2.6787 2.8295 -2.0024


