%nproc=12
%mem=12GB
%chk=00000230.chk
#p opt freq b3lyp/6-31g*

C=CC(=O)O

0 1
C -0.3023 0.4201 -1.4424
C 0.4314 0.2447 -0.3357
C 0.5467 -1.0278 0.3915
O 1.2140 -1.1864 1.3977
O -0.1595 -2.0295 -0.1535
H -0.8753 -0.3883 -1.8867
H -0.3431 1.3885 -1.9300
H 0.9968 1.0648 0.0926
H 0.0209 -2.7893 0.4371


