%nproc=12
%mem=12GB
%chk=00000072.chk
#p opt freq b3lyp/6-31g*

CC(C)N=C=O

0 2
C -0.1877 0.9955 -0.9153
C 0.2859 0.9014 0.5344
C 1.0946 -0.3686 0.7958
N -0.8349 1.0455 1.4893
C -1.6674 0.2190 1.4542
O -2.4950 -0.6140 1.4103
H -0.7660 1.9119 -1.0755
H 0.6671 1.0100 -1.5997
H -0.8226 0.1470 -1.1923
H 0.9524 1.7543 0.7150
H 1.9871 -0.3942 0.1618
H 1.4195 -0.4131 1.8409
H 0.5117 -1.2725 0.5883


