%nproc=12
%mem=12GB
%chk=00000040.chk
#p opt freq b3lyp/6-31g*

CCOC(=O)C(C)C

0 1
C -1.1121 1.3906 -2.6526
C -1.2231 0.2176 -1.6983
O -0.3069 0.4326 -0.6184
C -0.3047 -0.5549 0.3188
O -1.0067 -1.5573 0.2838
C 0.6857 -0.2608 1.4280
C 0.3062 1.0170 2.1676
C 2.1076 -0.1994 0.8817
H -1.3446 2.3290 -2.1383
H -1.7956 1.2721 -3.4979
H -0.0898 1.4816 -3.0342
H -2.2452 0.1528 -1.3089
H -0.9669 -0.7105 -2.2215
H 0.6264 -1.0971 2.1361
H 0.9598 1.1732 3.0322
H 0.3865 1.8974 1.5206
H -0.7272 0.9657 2.5273
H 2.2411 0.6450 0.1966
H 2.3516 -1.1134 0.3295
H 2.8314 -0.0907 1.6961


