%nproc=12
%mem=12GB
%chk=00000305.chk
#p opt freq b3lyp/6-31g*

Cc1ccc(C)nc1

0 2
C 1.5054 -1.9077 2.7863
C 0.9783 -0.7843 1.9529
C -0.2578 -0.1975 2.2204
C -0.7288 0.8245 1.3993
C 0.0475 1.2300 0.3183
C -0.4323 2.3270 -0.5836
N 1.2431 0.6665 0.0292
C 1.6759 -0.3233 0.8432
H 1.1604 -1.8211 3.8221
H 1.1677 -2.8665 2.3812
H 2.6003 -1.8986 2.8073
H -0.8580 -0.5290 3.0637
H -1.6869 1.2918 1.6015
H -0.5757 3.2500 -0.0133
H 0.2957 2.5263 -1.3766
H -1.3790 2.0432 -1.0535
H 2.6360 -0.7491 0.5639


