%nproc=12
%mem=12GB
%chk=00000170.chk
#p opt freq b3lyp/6-31g*

CC1=CCCC1

0 1
C -1.2436 -0.6012 -1.1170
C -0.6739 -0.2485 0.2098
C -1.3413 0.1683 1.2927
C -0.4317 0.3873 2.4552
C 0.9546 0.3566 1.8141
C 0.7933 -0.3705 0.4791
H -1.0211 -1.6444 -1.3623
H -2.3310 -0.4750 -1.1347
H -0.8173 0.0378 -1.8965
H -2.4130 0.3048 1.3457
H -0.6190 1.3480 2.9437
H -0.5542 -0.4151 3.1899
H 1.3019 1.3828 1.6359
H 1.6962 -0.1260 2.4590
H 1.3988 0.1049 -0.2986
H 1.0806 -1.4240 0.5614


