%nproc=12
%mem=12GB
%chk=00000217.chk
#p opt freq b3lyp/6-31g*

SCCS

0 1
S -0.2229 2.1175 -1.0558
C -0.6817 0.4189 -0.5880
C 0.5233 -0.4585 -0.2538
S 1.5525 -0.8448 -1.7087
H 0.6289 1.7735 -2.0356
H -1.3309 0.4894 0.2909
H -1.2760 -0.0215 -1.3959
H 0.1715 -1.4113 0.1556
H 1.1530 0.0116 0.5090
H 0.6131 -1.5130 -2.3946


