%nproc=12
%mem=12GB
%chk=00000371.chk
#p opt freq b3lyp/6-31g*

Cc1ccc(C)c2ccccc12

0 1
C 1.4329 -2.1287 -2.4101
C 1.3546 -0.8265 -1.6550
C 2.2097 0.2134 -2.0413
C 2.1821 1.4363 -1.3816
C 1.2986 1.6543 -0.3168
C 1.3171 3.0022 0.3576
C 0.4198 0.6179 0.0969
C -0.4919 0.7839 1.1653
C -1.3529 -0.2372 1.5676
C -1.3254 -1.4557 0.9103
C -0.4370 -1.6497 -0.1475
C 0.4480 -0.6343 -0.5786
H 0.4720 -2.3521 -2.8847
H 2.1870 -2.0909 -3.2037
H 1.7114 -2.9443 -1.7351
H 2.9079 0.0770 -2.8643
H 2.8595 2.2231 -1.7067
H 0.3402 3.4876 0.2654
H 2.0570 3.6708 -0.0958
H 1.5797 2.8955 1.4150
H -0.5445 1.7253 1.7069
H -2.0410 -0.0754 2.3927
H -1.9918 -2.2577 1.2155
H -0.4464 -2.6204 -0.6373


