%nproc=12
%mem=12GB
%chk=00000140.chk
#p opt freq b3lyp/6-31g*

SC1CCCCC1

0 1
S 0.6976 -1.9929 -0.7175
C 0.0869 -0.2743 -0.5802
C 1.2466 0.6974 -0.3079
C 1.4076 1.0010 1.1782
C 0.1436 1.6284 1.7711
C -1.1440 1.1914 1.0692
C -1.0182 -0.2119 0.4862
H -0.4723 -2.5437 -1.0737
H -0.3416 -0.0251 -1.5581
H 2.1928 0.3365 -0.7282
H 1.0348 1.6436 -0.8244
H 2.2582 1.6737 1.3372
H 1.6409 0.0734 1.7156
H 0.0916 1.3720 2.8362
H 0.2146 2.7219 1.7243
H -1.9808 1.2365 1.7754
H -1.3782 1.8976 0.2626
H -0.8209 -0.9073 1.3130
H -1.9747 -0.5150 0.0431


