%nproc=12
%mem=12GB
%chk=00000351.chk
#p opt freq b3lyp/6-31g*

O=P(Oc1ccccc1)(Oc1ccccc1)Oc1ccccc1

0 2
O 1.2632 -0.9597 -2.1026
P 0.3973 -0.4367 -0.9893
O -1.1807 -0.5139 -1.3137
C -2.2108 -0.1008 -0.5190
C -2.0706 0.4244 0.7634
C -3.2022 0.8210 1.4817
C -4.4725 0.6892 0.9226
C -4.6147 0.1592 -0.3567
C -3.4850 -0.2339 -1.0750
O 0.5460 -1.2458 0.3995
C 1.7068 -1.3743 1.1075
C 1.5998 -2.0304 2.3346
C 2.7278 -2.2142 3.1350
C 3.9666 -1.7420 2.7064
C 4.0757 -1.0911 1.4781
C 2.9460 -0.9065 0.6765
O 0.6692 1.1015 -0.5814
C 0.5348 2.1670 -1.4246
C 0.6158 3.4266 -0.8293
C 0.4799 4.5801 -1.6025
C 0.2692 4.4738 -2.9754
C 0.1964 3.2155 -3.5723
C 0.3291 2.0599 -2.7980
H -1.1021 0.5471 1.2355
H -3.0914 1.2318 2.4817
H -5.3500 0.9978 1.4848
H -5.6027 0.0516 -0.7961
H -3.6010 -0.6469 -2.0740
H 0.6348 -2.4033 2.6703
H 2.6406 -2.7251 4.0898
H 4.8486 -1.8869 3.3254
H 5.0445 -0.7324 1.1389
H 3.0725 -0.4074 -0.2797
H 0.7797 3.5140 0.2414
H 0.5394 5.5593 -1.1343
H 0.1657 5.3694 -3.5816
H 0.0380 3.1314 -4.6448
H 0.2755 1.0976 -3.2996


