%nproc=12
%mem=12GB
%chk=00000289.chk
#p opt freq b3lyp/6-31g*

CN1CCCC1=O

0 2
C -1.2540 0.6374 2.1387
N -1.5554 -0.0694 0.9167
C -0.8719 0.2234 -0.3154
C -1.4235 -0.8192 -1.2666
C -2.8552 -1.0232 -0.7844
C -2.7771 -0.6904 0.6869
O -3.6620 -0.8909 1.5021
H -1.5368 1.6869 2.0176
H -1.8181 0.2110 2.9726
H -0.1828 0.5609 2.3419
H 0.2107 0.1414 -0.1857
H -1.1371 1.2379 -0.6320
H -1.3654 -0.5135 -2.3149
H -0.8648 -1.7571 -1.1567
H -3.5427 -0.3226 -1.2681
H -3.1911 -2.0516 -0.9367


