%nproc=12
%mem=12GB
%chk=00000345.chk
#p opt freq b3lyp/6-31g*

O=C(c1ccccc1)C1CCCCC1

0 1
O -2.0292 0.7848 -2.6201
C -1.8982 0.5770 -1.4139
C -2.9729 1.0483 -0.4847
C -3.9029 1.9788 -0.9713
C -4.9272 2.4549 -0.1505
C -5.0337 2.0015 1.1622
C -4.1200 1.0703 1.6531
C -3.0928 0.5919 0.8337
C -0.6840 -0.1631 -0.8535
C -0.9294 -1.6725 -0.9143
C 0.2130 -2.4608 -0.2713
C 1.5775 -1.7851 -0.4149
C 1.6455 -0.9027 -1.6534
C 0.6048 0.2199 -1.6102
H -3.8327 2.3394 -1.9964
H -5.6412 3.1771 -0.5386
H -5.8323 2.3703 1.8012
H -4.2105 0.7117 2.6759
H -2.4133 -0.1457 1.2486
H -0.5312 0.1393 0.1891
H -1.8750 -1.9436 -0.4304
H -1.0351 -1.9810 -1.9634
H 0.2450 -3.4609 -0.7203
H 0.0059 -2.6114 0.7952
H 2.3640 -2.5475 -0.4469
H 1.7743 -1.1719 0.4737
H 2.6471 -0.4701 -1.7563
H 1.4782 -1.5197 -2.5453
H 1.0423 1.0961 -1.1135
H 0.4030 0.5407 -2.6388


