%nproc=12
%mem=12GB
%chk=00000025.chk
#p opt freq b3lyp/6-31g*

C#Cc1ccccc1

0 1
C -1.7135 3.2330 -1.4991
C -1.2604 2.1537 -1.2310
C -0.7205 0.8677 -0.9116
C -0.1667 0.0716 -1.9170
C 0.3601 -1.1833 -1.6046
C 0.3336 -1.6431 -0.2879
C -0.2190 -0.8497 0.7175
C -0.7461 0.4055 0.4064
H -2.1154 4.1902 -1.7368
H -0.1424 0.4230 -2.9455
H 0.7906 -1.8014 -2.3881
H 0.7438 -2.6201 -0.0453
H -0.2397 -1.2078 1.7434
H -1.1750 1.0180 1.1956


