%nproc=12
%mem=12GB
%chk=00000284.chk
#p opt freq b3lyp/6-31g*

CCOC(=O)C1CCC1=O

0 1
C 1.9537 -2.5264 0.1594
C 1.5843 -1.1058 0.5428
O 0.1968 -0.8623 0.2617
C -0.1031 -0.4694 -1.0154
O 0.7539 -0.2802 -1.8781
C -1.6088 -0.2507 -1.2260
C -2.4189 0.5580 -0.1805
C -3.0986 -0.7228 0.3502
C -2.3883 -1.4899 -0.7744
O -2.4453 -2.6386 -1.1616
H 1.3017 -3.2437 0.6687
H 1.8272 -2.6893 -0.9156
H 2.9923 -2.7423 0.4254
H 1.7194 -0.9691 1.6207
H 2.2272 -0.3725 0.0430
H -1.8453 0.0301 -2.2592
H -1.8174 1.0883 0.5653
H -3.1163 1.2763 -0.6265
H -2.7830 -1.0320 1.3499
H -4.1883 -0.7343 0.2761


