%nproc=12
%mem=12GB
%chk=00000067.chk
#p opt freq b3lyp/6-31g*

CC(C)C#N

0 2
C -0.5648 -0.5797 -2.9267
C -1.1371 -0.8152 -1.5312
C -0.7815 -2.2129 -1.0309
C -2.5990 -0.6304 -1.5391
N -3.7501 -0.4833 -1.5439
H -0.9763 -1.2885 -3.6546
H 0.5248 -0.6904 -2.9246
H -0.7990 0.4306 -3.2808
H -0.6939 -0.0807 -0.8478
H -1.1716 -2.3782 -0.0202
H -1.2021 -2.9907 -1.6788
H 0.3046 -2.3502 -0.9980


