%nproc=12
%mem=12GB
%chk=00000292.chk
#p opt freq b3lyp/6-31g*

Cc1cccc(O)c1

0 1
C 1.7240 -1.3530 1.9640
C 1.3245 -0.7129 0.6681
C -0.0208 -0.4287 0.3996
C -0.3949 0.1387 -0.8210
C 0.5696 0.4178 -1.7891
C 1.9032 0.1214 -1.5272
O 2.8792 0.3701 -2.4470
C 2.2852 -0.4435 -0.3143
H 1.6918 -2.4427 1.8687
H 2.7368 -1.0523 2.2523
H 1.0524 -1.0483 2.7735
H -0.7858 -0.6473 1.1415
H -1.4410 0.3599 -1.0162
H 0.2642 0.8577 -2.7326
H 2.4669 0.7607 -3.2345
H 3.3337 -0.6710 -0.1400


