%nproc=12
%mem=12GB
%chk=00000172.chk
#p opt freq b3lyp/6-31g*

C=C1CCCCC1

0 1
C -3.5135 -1.6370 0.8116
C -2.3504 -1.0038 0.5924
C -1.1884 -1.6892 -0.0867
C -0.3117 -0.6809 -0.8254
C 0.2379 0.4055 0.1044
C -0.6627 0.7023 1.3076
C -2.1358 0.4311 1.0119
H -4.3467 -1.1394 1.2986
H -3.6624 -2.6694 0.5098
H -1.5455 -2.4452 -0.7959
H -0.5864 -2.2069 0.6703
H 0.5200 -1.1945 -1.3214
H -0.9005 -0.2061 -1.6215
H 0.3902 1.3217 -0.4791
H 1.2285 0.1115 0.4725
H -0.3445 0.0802 2.1547
H -0.5250 1.7437 1.6208
H -2.4714 1.0939 0.2047
H -2.7322 0.6680 1.9008


