%nproc=12
%mem=12GB
%chk=00000315.chk
#p opt freq b3lyp/6-31g*

OCCSCCO

0 1
O -3.4810 -0.0415 -0.3604
C -2.2181 0.5620 -0.6332
C -1.2799 0.4446 0.5649
S -0.9724 -1.2947 1.0584
C -0.0837 -1.9486 -0.4060
C 1.1950 -1.1940 -0.7645
O 0.9142 -0.0399 -1.5522
H -3.2940 -0.8723 0.1168
H -1.8040 0.1016 -1.5340
H -2.3998 1.6175 -0.8587
H -1.7537 0.9176 1.4320
H -0.3345 0.9643 0.3924
H 0.1783 -2.9810 -0.1521
H -0.7766 -1.9825 -1.2520
H 1.7524 -0.8853 0.1256
H 1.8530 -1.8382 -1.3579
H 0.6756 -0.3455 -2.4451


