%nproc=12
%mem=12GB
%chk=00000055.chk
#p opt freq b3lyp/6-31g*

CNC

0 2
C -0.7538 -1.5371 1.8354
N 0.1014 -0.4102 1.4884
C 1.2549 -0.8504 0.7156
H -0.2171 -2.2667 2.4505
H -1.1412 -2.0375 0.9419
H -1.6083 -1.1803 2.4187
H -0.4345 0.2608 0.9386
H 0.9520 -1.3219 -0.2251
H 1.8695 -1.5534 1.2872
H 1.8820 0.0130 0.4727


