%nproc=12
%mem=12GB
%chk=00000086.chk
#p opt freq b3lyp/6-31g*

CCNC(C)=O

0 2
C -0.1464 0.2085 -0.4646
C 0.0744 -0.8822 0.5681
N 0.8743 -1.9665 0.0388
C 2.2493 -1.9098 0.0207
C 2.9053 -3.0965 -0.6326
O 2.9011 -0.9771 0.4781
H -0.6416 -0.1918 -1.3555
H -0.7736 1.0041 -0.0510
H 0.8031 0.6514 -0.7825
H 0.5684 -0.4671 1.4529
H -0.8850 -1.3081 0.8781
H 0.4041 -2.7030 -0.4704
H 3.7363 -3.4347 -0.0074
H 2.2070 -3.9296 -0.7515
H 3.2794 -2.8016 -1.6164


