%nproc=12
%mem=12GB
%chk=00000255.chk
#p opt freq b3lyp/6-31g*

CC(=O)C1=CC=CC1

0 1
C -0.0844 -1.4488 1.4093
C 0.9504 -0.4713 0.9202
O 2.0947 -0.4693 1.3705
C 0.5471 0.4912 -0.1234
C 1.3569 1.4192 -0.6559
C 0.6255 2.1754 -1.6396
C -0.6317 1.7136 -1.7121
C -0.8135 0.5793 -0.7419
H -0.4243 -2.0795 0.5839
H 0.3578 -2.0926 2.1756
H -0.9263 -0.9123 1.8544
H 2.3933 1.5857 -0.3994
H 1.0459 2.9852 -2.2174
H -1.4036 2.0926 -2.3653
H -1.5811 0.8226 -0.0011
H -1.0803 -0.3418 -1.2687


