%nproc=12
%mem=12GB
%chk=00000249.chk
#p opt freq b3lyp/6-31g*

Fc1c(F)c(F)c(C(F)(F)F)c(F)c1F

0 1
F 4.1770 0.7427 -1.0190
C 3.0579 0.3647 -0.3867
C 3.0849 0.0856 0.9713
F 4.2305 0.1971 1.6569
C 1.9189 -0.3059 1.6265
F 1.9643 -0.5508 2.9424
C 0.7146 -0.4355 0.9367
C -0.5365 -0.8302 1.6459
F -1.2076 0.2473 2.1349
F -0.3202 -1.6532 2.7080
F -1.4202 -1.4972 0.8545
C 0.7020 -0.1332 -0.4241
F -0.4433 -0.2092 -1.1143
C 1.8646 0.2587 -1.0849
F 1.8259 0.5383 -2.3946


