%nproc=12
%mem=12GB
%chk=00000303.chk
#p opt freq b3lyp/6-31g*

Cc1cccnc1C

0 2
C -1.9543 -0.5921 -0.3281
C -1.0580 0.5677 -0.6452
C -0.9148 1.6161 0.2708
C -0.0834 2.6897 -0.0258
C 0.5828 2.6816 -1.2361
N 0.4723 1.6913 -2.1460
C -0.3420 0.6476 -1.8466
C -0.4330 -0.4295 -2.8889
H -2.4271 -0.4772 0.6531
H -1.3803 -1.5239 -0.3097
H -2.7539 -0.6707 -1.0715
H -1.4488 1.6018 1.2176
H 0.0412 3.5113 0.6698
H 1.2443 3.4956 -1.5172
H -0.0898 -1.3853 -2.4816
H 0.1957 -0.1885 -3.7526
H -1.4632 -0.5322 -3.2433


