%nproc=12
%mem=12GB
%chk=00000082.chk
#p opt freq b3lyp/6-31g*

CCN(C=O)CC

0 2
C -1.8672 0.3022 0.9541
C -0.3737 0.0195 0.9721
N 0.3498 0.8746 0.0382
C 0.5620 0.4510 -1.2594
O 0.1844 -0.6102 -1.7382
C 0.8161 2.1796 0.4870
C 2.1909 2.0949 1.1293
H -2.3876 -0.3571 1.6555
H -2.2863 0.1398 -0.0443
H -2.0769 1.3382 1.2390
H -0.2056 -1.0292 0.7024
H 0.0338 0.1683 1.9777
H 1.1291 1.1823 -1.8592
H 0.8681 2.8527 -0.3764
H 0.0861 2.5973 1.1882
H 2.1771 1.4435 2.0090
H 2.9277 1.6911 0.4271
H 2.5256 3.0879 1.4445


