%nproc=12
%mem=12GB
%chk=00000343.chk
#p opt freq b3lyp/6-31g*

O=C1OC(c2ccc(O)cc2)(c2ccc(O)cc2)c2ccccc21

0 1
O 1.3449 3.5070 2.3086
C 0.8548 2.5518 1.7413
O 1.2870 1.9818 0.5838
C 0.5079 0.8059 0.1994
C -0.0862 1.0174 -1.2057
C -0.2388 2.3063 -1.7512
C -0.8035 2.4887 -3.0159
C -1.2262 1.3887 -3.7489
O -1.7686 1.6144 -4.9788
C -1.0977 0.1037 -3.2376
C -0.5350 -0.0794 -1.9711
C 1.5218 -0.3514 0.2624
C 1.4029 -1.4415 1.1450
C 2.3548 -2.4680 1.1594
C 3.4398 -2.4134 0.2938
O 4.3872 -3.3928 0.2767
C 3.5926 -1.3488 -0.5811
C 2.6449 -0.3236 -0.5932
C -0.5700 0.8061 1.2449
C -1.6933 0.0004 1.3968
C -2.5428 0.2294 2.4849
C -2.2730 1.2579 3.4017
C -1.1541 2.0730 3.2351
C -0.3316 1.8211 2.1493
H 0.0832 3.1883 -1.2003
H -0.9107 3.4891 -3.4265
H -1.9888 0.7596 -5.3834
H -1.4255 -0.7626 -3.8035
H -0.4415 -1.0943 -1.5882
H 0.5768 -1.5150 1.8473
H 2.2325 -3.2937 1.8537
H 4.1783 -4.0408 0.9689
H 4.4490 -1.3095 -1.2485
H 2.7889 0.5108 -1.2793
H -1.9175 -0.7938 0.6903
H -3.4264 -0.3916 2.6206
H -2.9462 1.4257 4.2396
H -0.9367 2.8840 3.9234


