%nproc=12
%mem=12GB
%chk=00000116.chk
#p opt freq b3lyp/6-31g*

FC(F)(F)C(F)(F)C(F)(F)C(F)(F)C(F)(F)C(F)(F)F

0 1
F -1.2740 -2.0635 -0.6749
C -1.8774 -0.8553 -0.7213
F -2.9860 -0.9909 -1.4899
F -2.3149 -0.5720 0.5263
C -0.9593 0.2228 -1.2612
F -1.5807 1.4378 -1.2075
F -0.7295 -0.0031 -2.5944
C 0.3799 0.2918 -0.5536
F 1.1129 1.2835 -1.1460
F 1.0818 -0.8552 -0.7784
C 0.2944 0.5490 0.9379
F -0.5519 1.5836 1.1792
F -0.2520 -0.5365 1.5475
C 1.6588 0.8324 1.5274
F 2.2093 1.9384 0.9520
F 2.5135 -0.1950 1.2599
C 1.5366 1.0353 3.0250
F 1.0446 -0.0579 3.6527
F 0.7261 2.0732 3.3363
F 2.7428 1.2981 3.5865


