%nproc=12
%mem=12GB
%chk=00000100.chk
#p opt freq b3lyp/6-31g*

CN(C)C(N)=O

0 1
C 0.4453 -0.5866 0.8619
N -0.8194 -0.8051 0.1812
C -1.4108 0.3695 -0.4436
C -1.1214 -2.0985 -0.1863
N -2.2857 -2.2680 -0.8602
O -0.4243 -3.0780 0.0547
H 0.3487 0.2655 1.5411
H 0.7416 -1.4646 1.4431
H 1.2167 -0.3781 0.1144
H -2.4134 0.1795 -0.8309
H -1.4699 1.1753 0.2939
H -0.7701 0.6797 -1.2748
H -2.4828 -3.2495 -1.0131
H -3.0745 -1.7638 -0.4839


