%nproc=12
%mem=12GB
%chk=00000113.chk
#p opt freq b3lyp/6-31g*

CCC(C)F

0 2
C -1.6179 -0.7760 -0.3296
C -0.4389 -0.0822 0.3315
C 0.8194 -0.9425 0.3967
C 1.4015 -1.2848 -0.9630
F 1.7654 -0.2377 1.0841
H -2.5090 -0.1430 -0.2685
H -1.4244 -0.9742 -1.3879
H -1.8427 -1.7259 0.1656
H -0.7171 0.2051 1.3527
H -0.2195 0.8554 -0.1930
H 0.6272 -1.8596 0.9634
H 2.3569 -1.8052 -0.8402
H 0.7328 -1.9271 -1.5426
H 1.6050 -0.3759 -1.5386


