%nproc=12
%mem=12GB
%chk=00000164.chk
#p opt freq b3lyp/6-31g*

CC1(C)CO1

0 1
C -0.8002 -2.0738 -0.4633
C -0.2976 -0.7322 -0.0363
C -0.3404 -0.4227 1.4256
C 0.6472 0.0325 -0.9347
O -0.7525 0.3451 -0.8672
H -0.1799 -2.8657 -0.0316
H -1.8312 -2.2229 -0.1265
H -0.7832 -2.1890 -1.5524
H -1.3595 -0.5292 1.8113
H 0.3092 -1.1097 1.9774
H -0.0068 0.5988 1.6371
H 1.3384 0.7387 -0.4916
H 1.0104 -0.4393 -1.8394


