%nproc=12
%mem=12GB
%chk=00000253.chk
#p opt freq b3lyp/6-31g*

COC(=O)C1=CC=CC1

0 1
C -3.6754 1.0771 0.6744
O -2.2620 0.8979 0.5846
C -1.5926 2.0080 0.1863
O -2.0900 3.0902 -0.0854
C -0.1519 1.7489 0.1174
C 0.5105 0.6130 0.3884
C 1.9204 0.8274 0.1817
C 2.1251 2.0919 -0.2155
C 0.8105 2.8192 -0.2987
H -4.0926 1.3344 -0.3042
H -4.1168 0.1314 1.0007
H -3.9185 1.8461 1.4145
H 0.0806 -0.3236 0.7107
H 2.6783 0.0725 0.3296
H 3.0835 2.5338 -0.4441
H 0.7924 3.6699 0.3894
H 0.6191 3.1609 -1.3205


