%nproc=12
%mem=12GB
%chk=00000081.chk
#p opt freq b3lyp/6-31g*

CCCCO[N+](=O)[O-]

0 2
C 1.9330 -1.5139 0.2853
C 0.9037 -0.4370 0.5888
C 0.3348 0.1693 -0.6911
C -0.6998 1.2519 -0.3920
O -1.1731 1.7577 -1.6373
N -2.1442 2.7748 -1.4769
O -2.4509 3.0875 -0.3253
O -2.5553 3.2140 -2.5492
H 2.7728 -1.1044 -0.2851
H 2.3273 -1.9344 1.2157
H 1.4886 -2.3292 -0.2944
H 0.0944 -0.8715 1.1869
H 1.3715 0.3465 1.1962
H 1.1415 0.5968 -1.3000
H -0.1257 -0.6117 -1.3092
H -0.2284 2.0548 0.1881
H -1.5285 0.8149 0.1786


