%nproc=12
%mem=12GB
%chk=00000193.chk
#p opt freq b3lyp/6-31g*

CCC(C)C(C)=O

0 1
C -0.0707 2.0063 1.8034
C -0.1248 0.6939 1.0346
C -0.7174 0.8457 -0.3724
C 0.1747 1.6464 -1.3165
C -1.0354 -0.5187 -0.9784
C 0.0830 -1.5187 -1.1354
O -2.1819 -0.7976 -1.3353
H 0.6045 2.7225 1.3262
H 0.2953 1.8309 2.8202
H -1.0638 2.4609 1.8756
H -0.7279 -0.0210 1.6084
H 0.8866 0.2732 0.9807
H -1.6782 1.3718 -0.2890
H -0.2120 1.6143 -2.3411
H 1.1965 1.2530 -1.3361
H 0.2253 2.6969 -1.0137
H 0.8958 -1.0893 -1.7247
H -0.2917 -2.4014 -1.6623
H 0.4476 -1.8307 -0.1545


