%nproc=12
%mem=12GB
%chk=00000236.chk
#p opt freq b3lyp/6-31g*

O=CCc1ccccc1

0 1
O 1.0933 0.3179 -2.0570
C -0.0410 -0.0742 -2.3090
C -0.9921 -0.7307 -1.3369
C -0.4557 -0.8991 0.0603
C 0.2483 -2.0575 0.4177
C 0.7489 -2.2104 1.7119
C 0.5563 -1.2063 2.6585
C -0.1327 -0.0461 2.3112
C -0.6342 0.1093 1.0177
H -0.4453 0.0437 -3.3295
H -1.9099 -0.1315 -1.3131
H -1.2677 -1.7083 -1.7497
H 0.4188 -2.8466 -0.3109
H 1.2961 -3.1105 1.9791
H 0.9512 -1.3239 3.6640
H -0.2732 0.7422 3.0459
H -1.1589 1.0268 0.7616


