%nproc=12
%mem=12GB
%chk=00000317.chk
#p opt freq b3lyp/6-31g*

CCCCOCCCO

0 1
C -2.1789 -2.6784 -1.6322
C -2.3397 -2.4098 -0.1441
C -1.0104 -2.1772 0.5805
C -0.2383 -0.9476 0.1075
O -1.0516 0.2117 0.2713
C -0.4095 1.4159 -0.1521
C 0.4348 1.9992 0.9785
C 1.1140 3.2986 0.5744
O 0.1557 4.2943 0.2482
H -1.7987 -1.7985 -2.1594
H -1.4930 -3.5128 -1.8094
H -3.1469 -2.9360 -2.0740
H -3.0065 -1.5522 0.0010
H -2.8364 -3.2733 0.3145
H -0.3745 -3.0643 0.4785
H -1.2323 -2.0601 1.6486
H 0.0508 -1.0546 -0.9434
H 0.6737 -0.8494 0.7056
H 0.1859 1.2412 -1.0560
H -1.2071 2.1179 -0.4174
H -0.2148 2.1686 1.8461
H 1.1942 1.2776 1.2977
H 1.7373 3.6761 1.3913
H 1.7578 3.1463 -0.2976
H -0.3832 4.4559 1.0423


