%nproc=12
%mem=12GB
%chk=00000247.chk
#p opt freq b3lyp/6-31g*

CC(C)c1ccccc1

0 1
C 0.0395 -0.7191 -2.4290
C 0.8364 -0.1820 -1.2377
C 1.6132 1.0789 -1.6250
C -0.0556 0.0601 -0.0330
C -1.1038 0.9927 -0.0667
C -1.9116 1.1987 1.0536
C -1.6831 0.4761 2.2220
C -0.6468 -0.4530 2.2711
C 0.1618 -0.6600 1.1515
H -0.6897 0.0107 -2.7972
H 0.7093 -0.9672 -3.2595
H -0.5072 -1.6287 -2.1562
H 1.5777 -0.9484 -0.9746
H 0.9490 1.8830 -1.9599
H 2.1937 1.4572 -0.7762
H 2.3126 0.8646 -2.4403
H -1.3012 1.5685 -0.9678
H -2.7197 1.9243 1.0129
H -2.3120 0.6368 3.0934
H -0.4665 -1.0181 3.1818
H 0.9654 -1.3906 1.2121


