%nproc=12
%mem=12GB
%chk=00000370.chk
#p opt freq b3lyp/6-31g*

Cc1cc2ccccc2cc1C

0 1
C 2.6563 -0.6985 1.6049
C 1.4970 0.0526 1.0093
C 0.1901 -0.4152 1.2270
C -0.9264 0.2490 0.6935
C -2.2331 -0.2191 0.9114
C -3.3318 0.4531 0.3738
C -3.1386 1.6011 -0.3881
C -1.8463 2.0783 -0.6133
C -0.7305 1.4125 -0.0787
C 0.5763 1.8790 -0.2955
C 1.6925 1.2134 0.2390
C 3.0698 1.7576 -0.0251
H 3.3249 -1.0547 0.8148
H 2.3210 -1.5737 2.1715
H 3.2132 -0.0549 2.2931
H 0.0387 -1.3134 1.8231
H -2.4034 -1.1148 1.5043
H -4.3368 0.0793 0.5507
H -3.9922 2.1265 -0.8080
H -1.7146 2.9771 -1.2112
H 0.7274 2.7772 -0.8916
H 3.0342 2.6630 -0.6402
H 3.6740 1.0192 -0.5615
H 3.5623 2.0190 0.9168


