%nproc=12
%mem=12GB
%chk=00000057.chk
#p opt freq b3lyp/6-31g*

CC(C)NC(C)C

0 2
C 2.7474 -0.3098 -0.3592
C 1.3168 0.0040 -0.8002
C 1.3477 1.0306 -1.9373
N 0.4988 0.5584 0.2849
C 0.2633 -0.3282 1.4303
C -0.4572 0.4895 2.5065
C -0.5760 -1.5552 1.0697
H 3.3596 -0.6075 -1.2178
H 3.2239 0.5617 0.1035
H 2.7771 -1.1368 0.3569
H 0.8557 -0.9063 -1.1991
H 0.3370 1.2463 -2.3020
H 1.8011 1.9749 -1.6150
H 1.9282 0.6513 -2.7855
H -0.3984 0.8665 -0.0907
H 1.2147 -0.6559 1.8625
H 0.1362 1.3634 2.7986
H -0.6194 -0.1140 3.4063
H -1.4347 0.8435 2.1593
H -1.5213 -1.2693 0.5951
H -0.0401 -2.2233 0.3884
H -0.8161 -2.1353 1.9676


