%nproc=12
%mem=12GB
%chk=00000087.chk
#p opt freq b3lyp/6-31g*

CC(=O)N(C)C

0 2
C 0.1649 0.5887 -2.5925
C -0.2734 0.5275 -1.1508
O -0.0054 1.4559 -0.3875
N -0.9808 -0.5996 -0.7496
C -1.3175 -0.7359 0.6580
C -1.1384 -1.7953 -1.5631
H 0.8327 -0.2455 -2.8227
H 0.7140 1.5198 -2.7641
H -0.7066 0.5817 -3.2521
H -0.5924 -1.4077 1.1270
H -2.3220 -1.1598 0.7476
H -1.2976 0.2257 1.1778
H -2.1107 -2.2499 -1.3515
H -1.0870 -1.5772 -2.6309
H -0.3409 -2.4980 -1.3044


