%nproc=12
%mem=12GB
%chk=00000163.chk
#p opt freq b3lyp/6-31g*

CCC1CO1

0 1
C -2.0875 -0.7353 -0.3840
C -0.7456 -1.3568 -0.0328
C 0.3885 -0.5707 -0.6071
C 1.7276 -0.5271 0.0797
O 0.7920 0.5577 0.1765
H -2.1641 0.2822 0.0134
H -2.9050 -1.3299 0.0350
H -2.2234 -0.6820 -1.4692
H -0.7048 -2.3779 -0.4280
H -0.6570 -1.4306 1.0576
H 0.3518 -0.4638 -1.6831
H 2.6111 -0.3691 -0.5257
H 1.8858 -1.1311 0.9641


