%nproc=12
%mem=12GB
%chk=00000062.chk
#p opt freq b3lyp/6-31g*

CN(C)c1ccccc1

0 2
C -1.7889 -1.2489 -0.4391
N -0.7820 -0.9092 0.5645
C 0.4865 -1.6266 0.4529
C -0.7844 0.3792 1.1160
C 0.3016 0.8772 1.8600
C 0.2978 2.1593 2.4274
C -0.8066 2.9862 2.2761
C -1.9048 2.5249 1.5640
C -1.8911 1.2411 1.0005
H -1.7149 -0.5896 -1.3111
H -1.6655 -2.2789 -0.7927
H -2.7998 -1.1962 -0.0209
H 1.1993 -1.0733 -0.1686
H 0.9245 -1.8143 1.4391
H 0.3463 -2.6128 -0.0040
H 1.1892 0.2747 2.0248
H 1.1613 2.5018 2.9911
H -0.8143 3.9789 2.7162
H -2.7813 3.1561 1.4455
H -2.7850 0.9343 0.4669


