%nproc=12
%mem=12GB
%chk=00000162.chk
#p opt freq b3lyp/6-31g*

CCOC(=O)OCC

0 1
C 0.6804 2.2492 -0.2632
C 1.2828 1.1212 -1.0798
O 0.7280 -0.1359 -0.6738
C 1.3487 -0.7437 0.3679
O 2.3151 -0.3129 0.9780
O 0.7080 -1.9138 0.6130
C 1.2285 -2.6916 1.6980
C 2.3518 -3.5874 1.2103
H -0.4115 2.2423 -0.3447
H 0.9212 2.1378 0.7987
H 1.0538 3.2183 -0.6059
H 1.0290 1.2570 -2.1363
H 2.3768 1.1166 -1.0111
H 1.5560 -2.0534 2.5268
H 0.4051 -3.3075 2.0743
H 3.1898 -2.9951 0.8295
H 2.0082 -4.2203 0.3854
H 2.7158 -4.2278 2.0186


