%nproc=12
%mem=12GB
%chk=00000053.chk
#p opt freq b3lyp/6-31g*

CCC(C)N

0 2
C 0.2530 1.8047 -0.2420
C -0.5117 0.5665 0.2072
C 0.0702 -0.7481 -0.3383
C -0.6718 -1.9462 0.2522
N -0.0135 -0.8239 -1.7969
H 0.1677 1.9619 -1.3213
H -0.1496 2.6938 0.2540
H 1.3140 1.7255 0.0150
H -1.5636 0.6690 -0.0879
H -0.4967 0.5352 1.3039
H 1.1255 -0.8223 -0.0504
H -0.2505 -2.8891 -0.1142
H -1.7369 -1.9284 -0.0053
H -0.5902 -1.9510 1.3446
H 0.5198 -0.0643 -2.2164
H -0.9793 -0.6911 -2.0949


