%nproc=12
%mem=12GB
%chk=00000188.chk
#p opt freq b3lyp/6-31g*

CC=C(C)C

0 1
C 0.2119 2.5726 -2.0124
C 0.4517 1.6726 -0.8422
C -0.3651 0.7319 -0.3294
C -1.7327 0.3843 -0.8492
C 0.0614 -0.0805 0.8666
H -0.7567 2.4261 -2.4926
H 0.9874 2.4070 -2.7670
H 0.2705 3.6169 -1.6896
H 1.4218 1.8262 -0.3692
H -1.7641 -0.6693 -1.1466
H -2.0364 0.9754 -1.7150
H -2.4826 0.5431 -0.0669
H -0.6389 0.0685 1.6951
H 0.0807 -1.1457 0.6138
H 1.0600 0.1943 1.2226


