%nproc=12
%mem=12GB
%chk=00000379.chk
#p opt freq b3lyp/6-31g*

c1ccc2c(c1)ccc1ccccc12

0 1
C 3.8144 0.4409 0.6741
C 3.4935 -0.9074 0.6475
C 2.2046 -1.3103 0.2850
C 1.1906 -0.3820 -0.0638
C 1.5473 0.9908 -0.0278
C 2.8463 1.3833 0.3383
C 0.6028 1.9659 -0.3582
C -0.6921 1.6103 -0.7250
C -1.0808 0.2692 -0.7721
C -2.3959 -0.0562 -1.1464
C -2.8200 -1.3809 -1.2048
C -1.9317 -2.3972 -0.8890
C -0.6207 -2.0861 -0.5152
C -0.1501 -0.7502 -0.4435
H 4.8139 0.7610 0.9549
H 4.2414 -1.6518 0.9078
H 2.0061 -2.3781 0.2805
H 3.1157 2.4373 0.3646
H 0.8658 3.0213 -0.3339
H -1.3977 2.3998 -0.9750
H -3.1065 0.7287 -1.3976
H -3.8401 -1.6153 -1.4961
H -2.2520 -3.4349 -0.9312
H 0.0340 -2.9197 -0.2781


