%nproc=12
%mem=12GB
%chk=00000110.chk
#p opt freq b3lyp/6-31g*

CC(C)(Cl)Cl

0 1
C -0.9964 -1.1872 1.0245
C 0.2713 -0.5425 0.4729
C 0.4579 -0.8643 -1.0064
H -0.9644 -2.2779 0.9201
H -1.8858 -0.8340 0.4899
H -1.1363 -0.9597 2.0877
H 0.5329 -1.9454 -1.1708
H -0.3885 -0.5016 -1.6011
H 1.3676 -0.4037 -1.4091


