%nproc=12
%mem=12GB
%chk=00000232.chk
#p opt freq b3lyp/6-31g*

NCc1ccccc1

0 2
N -2.2397 1.5117 1.7136
C -1.2978 1.0362 0.7072
C -1.1091 -0.4567 0.7886
C -2.1774 -1.3235 0.5133
C -2.0068 -2.7070 0.5823
C -0.7665 -3.2398 0.9273
C 0.3027 -2.3900 1.2055
C 0.1331 -1.0054 1.1375
H -1.9101 1.2191 2.6325
H -2.2397 2.5291 1.7161
H -1.6602 1.2995 -0.2930
H -0.3387 1.5493 0.8429
H -3.1516 -0.9148 0.2520
H -2.8435 -3.3670 0.3696
H -0.6341 -4.3169 0.9819
H 1.2695 -2.8058 1.4765
H 0.9784 -0.3583 1.3587


