%nproc=12
%mem=12GB
%chk=00000383.chk
#p opt freq b3lyp/6-31g*

c1ccc2cnccc2c1

0 2
C -2.1617 -0.5755 1.2056
C -1.7038 0.0228 2.3771
C -0.3901 0.4865 2.4557
C 0.4780 0.3538 1.3571
C 1.8025 0.7987 1.3770
N 2.6665 0.6884 0.3406
C 2.1908 0.1043 -0.7781
C 0.8965 -0.3739 -0.9116
C 0.0173 -0.2510 0.1710
C -1.3081 -0.7124 0.1086
H -3.1853 -0.9368 1.1443
H -2.3696 0.1286 3.2300
H -0.0460 0.9516 3.3767
H 2.2214 1.2740 2.2602
H 2.9010 0.0265 -1.5964
H 0.5856 -0.8324 -1.8441
H -1.6857 -1.1826 -0.7967


