%nproc=12
%mem=12GB
%chk=00000176.chk
#p opt freq b3lyp/6-31g*

Cc1ncc[nH]1

0 1
C -1.4749 -0.3445 1.4755
C -0.2436 -0.1426 0.6779
N 0.0770 -0.7436 -0.4488
C 1.2983 -0.2357 -0.8072
C 1.7291 0.6880 0.1134
N 0.7392 0.7389 1.0546
H -1.2288 -0.6996 2.4809
H -2.1239 -1.0871 1.0011
H -2.0351 0.5915 1.5629
H 1.8004 -0.5629 -1.7083
H 2.6224 1.2920 0.1783
H 0.7258 1.3189 1.8820


