%nproc=12
%mem=12GB
%chk=00000271.chk
#p opt freq b3lyp/6-31g*

OC1CCCCC1

0 1
O -0.5827 1.4443 2.3166
C -0.3150 0.7744 1.0858
C 0.9991 1.3094 0.5054
C 0.7583 2.4527 -0.4754
C -0.1081 2.0152 -1.6591
C -1.1026 0.9050 -1.3121
C -1.5156 0.9606 0.1514
H -1.4057 1.0731 2.6780
H -0.1827 -0.2877 1.3229
H 1.6663 1.6469 1.3068
H 1.5141 0.5002 -0.0277
H 1.7133 2.8433 -0.8448
H 0.2654 3.2804 0.0502
H -0.6472 2.8906 -2.0412
H 0.5316 1.6691 -2.4800
H -0.6463 -0.0709 -1.5210
H -1.9826 0.9827 -1.9604
H -2.0166 1.9156 0.3571
H -2.2607 0.1842 0.3626


