%nproc=12
%mem=12GB
%chk=00000374.chk
#p opt freq b3lyp/6-31g*

C1=Cc2cccc3cccc(c23)C1

0 1
C -2.3082 1.9791 -1.0640
C -1.9012 2.6116 0.0458
C -0.7783 2.0807 0.8288
C -0.3619 2.7495 1.9860
C 0.7024 2.2559 2.7378
C 1.3579 1.0911 2.3391
C 0.9588 0.4028 1.1828
C 1.6120 -0.7702 0.7731
C 1.2082 -1.4474 -0.3775
C 0.1460 -0.9619 -1.1352
C -0.5230 0.2079 -0.7473
C -0.1217 0.9007 0.4162
C -1.6751 0.7191 -1.5843
H -3.1402 2.3829 -1.6336
H -2.3896 3.5195 0.3830
H -0.8624 3.6583 2.3098
H 1.0221 2.7787 3.6354
H 2.1864 0.7223 2.9398
H 2.4441 -1.1663 1.3508
H 1.7237 -2.3544 -0.6821
H -0.1610 -1.4974 -2.0305
H -1.3138 0.9091 -2.6020
H -2.4460 -0.0591 -1.6351


