%nproc=12
%mem=12GB
%chk=00000282.chk
#p opt freq b3lyp/6-31g*

COC1CCCCC1

0 1
C -2.0479 0.4277 1.4798
O -0.6393 0.4863 1.3037
C -0.1838 1.7168 0.7288
C -0.4002 1.7392 -0.7898
C 0.4340 0.6757 -1.5041
C 1.9161 0.8081 -1.1664
C 2.1559 0.7972 0.3403
C 1.3089 1.8515 1.0546
H -2.2888 -0.5128 1.9828
H -2.3931 1.2537 2.1089
H -2.5665 0.4422 0.5181
H -0.7172 2.5538 1.1962
H -1.4550 1.5801 -1.0359
H -0.1286 2.7290 -1.1776
H 0.2954 0.7674 -2.5874
H 0.0806 -0.3235 -1.2219
H 2.4763 -0.0086 -1.6354
H 2.3028 1.7438 -1.5888
H 3.2171 0.9793 0.5450
H 1.9227 -0.1973 0.7399
H 1.4636 1.7498 2.1354
H 1.6567 2.8508 0.7655


