%nproc=12
%mem=12GB
%chk=00000250.chk
#p opt freq b3lyp/6-31g*

O=Cc1ccco1

0 1
O 1.1947 2.2539 0.0732
C 2.0776 1.3998 0.0890
C 1.8891 -0.0223 -0.0400
C 2.7919 -1.0691 -0.0374
C 2.0361 -2.2562 -0.2011
C 0.7224 -1.8630 -0.2934
O 0.6230 -0.5130 -0.1971
H 3.1289 1.7114 0.2120
H 3.8648 -0.9878 0.0696
H 2.4012 -3.2729 -0.2465
H -0.2126 -2.3910 -0.4224


