%nproc=12
%mem=12GB
%chk=00000276.chk
#p opt freq b3lyp/6-31g*

N#CC1CCCC1

0 2
N 1.3511 0.4241 -2.8464
C 0.8576 -0.3588 -2.1464
C 0.2310 -1.3538 -1.2588
C 1.0988 -1.6513 -0.0386
C 0.7881 -0.5324 0.9536
C -0.5935 0.0006 0.5757
C -1.0527 -0.8212 -0.6270
H 0.0348 -2.2675 -1.8303
H 0.7976 -2.6112 0.3997
H 2.1688 -1.7104 -0.2642
H 1.5313 0.2693 0.8723
H 0.8146 -0.8981 1.9851
H -1.3020 -0.0815 1.4063
H -0.5231 1.0619 0.3104
H -1.6628 -1.6619 -0.2732
H -1.6679 -0.2301 -1.3134


