%nproc=12
%mem=12GB
%chk=00000365.chk
#p opt freq b3lyp/6-31g*

c1ccc2c(c1)CCO2

0 1
C -1.6164 1.9369 1.3623
C -1.3700 1.2434 2.5597
C -0.5235 0.1328 2.5745
C 0.0623 -0.2461 1.3848
C -0.1781 0.4315 0.1993
C -1.0222 1.5268 0.1653
C 0.5288 -0.2542 -0.9043
C 1.4650 -1.1375 -0.0780
O 0.9066 -1.3172 1.2451
H -2.2833 2.7960 1.3675
H -1.8453 1.5719 3.4806
H -0.3285 -0.4145 3.4895
H -1.2268 2.0516 -0.7620
H -0.1736 -0.8594 -1.4863
H 1.0812 0.4196 -1.5641
H 2.4508 -0.6686 0.0369
H 1.6106 -2.1170 -0.5453


