%nproc=12
%mem=12GB
%chk=00000291.chk
#p opt freq b3lyp/6-31g*

Cc1ccccc1O

0 1
C 2.5105 0.8121 -1.8320
C 1.4423 1.0278 -0.8002
C 0.8797 2.2978 -0.6146
C -0.1143 2.5001 0.3452
C -0.5560 1.4354 1.1290
C -0.0050 0.1662 0.9551
C 0.9874 -0.0292 -0.0051
O 1.5359 -1.2681 -0.1858
H 3.4304 0.4562 -1.3570
H 2.7482 1.7395 -2.3636
H 2.1782 0.0794 -2.5745
H 1.2128 3.1393 -1.2177
H -0.5435 3.4896 0.4802
H -1.3297 1.5957 1.8752
H -0.3592 -0.6528 1.5729
H 1.1174 -1.8852 0.4356


