%nproc=12
%mem=12GB
%chk=00000123.chk
#p opt freq b3lyp/6-31g*

Ic1ccccc1

0 2
I 1.2483 -3.0649 -1.9406
C 0.3337 -1.3913 -1.1134
C -0.6753 -1.5512 -0.1632
C -1.2881 -0.4259 0.3910
C -0.8921 0.8518 -0.0047
C 0.1172 1.0074 -0.9552
C 0.7327 -0.1151 -1.5119
H -0.9938 -2.5405 0.1543
H -2.0748 -0.5457 1.1317
H -1.3704 1.7271 0.4279
H 0.4249 2.0036 -1.2627
H 1.5176 0.0207 -2.2512


