%nproc=12
%mem=12GB
%chk=00000029.chk
#p opt freq b3lyp/6-31g*

O=C(O)CCCC(=O)O

0 1
O 1.3001 -1.3637 -1.4368
C 0.1865 -1.7360 -1.1118
O -0.5834 -2.4300 -1.9726
C -0.5033 -1.5241 0.2097
C 0.3123 -0.6693 1.1787
C 0.3387 0.8085 0.7834
C 1.1038 1.6339 1.7828
O 1.6130 1.2567 2.8238
O 1.1748 2.9283 1.4146
H -0.0297 -2.5106 -2.7777
H -1.4802 -1.0624 0.0300
H -0.6595 -2.5122 0.6573
H -0.1290 -0.7623 2.1792
H 1.3376 -1.0528 1.2542
H 0.8151 0.9341 -0.1941
H -0.6840 1.1982 0.7337
H 1.6940 3.3503 2.1310


