%nproc=12
%mem=12GB
%chk=00000094.chk
#p opt freq b3lyp/6-31g*

CN(C=O)c1ccccc1

0 2
C 1.7840 1.3440 0.8699
N 1.6282 -0.1007 0.7580
C 2.5511 -0.8929 1.4423
O 2.6434 -2.1111 1.5134
C 0.5477 -0.6235 -0.0397
C -0.3438 0.2431 -0.7010
C -1.4014 -0.2413 -1.4819
C -1.5954 -1.6089 -1.6222
C -0.7314 -2.4872 -0.9812
C 0.3257 -1.9987 -0.2007
H 0.8875 1.7753 1.3265
H 1.9589 1.7719 -0.1223
H 2.6376 1.6118 1.5005
H 3.2884 -0.2788 1.9861
H -0.2480 1.3220 -0.6326
H -2.0715 0.4556 -1.9790
H -2.4140 -1.9894 -2.2266
H -0.8711 -3.5607 -1.0821
H 0.9590 -2.7433 0.2693


