%nproc=12
%mem=12GB
%chk=00000000.chk
#p opt freq b3lyp/6-31g*

CCCCCCCC

0 1
C 0.5052 -1.2380 -3.3516
C -0.6908 -0.7684 -2.5378
C -0.8026 -1.4408 -1.1668
C 0.3319 -1.0602 -0.2123
C 0.2327 -1.7444 1.1557
C -1.0314 -1.4444 1.9671
C -1.2213 0.0415 2.2727
C -2.4210 0.2722 3.1789
H 0.5062 -2.3274 -3.4565
H 1.4495 -0.9328 -2.8918
H 0.4706 -0.8014 -4.3550
H -1.6031 -0.9875 -3.1057
H -0.6467 0.3203 -2.4177
H -0.8328 -2.5298 -1.2923
H -1.7632 -1.1440 -0.7308
H 1.2934 -1.3478 -0.6528
H 0.3642 0.0280 -0.0872
H 0.3032 -2.8302 1.0143
H 1.1090 -1.4550 1.7494
H -0.9652 -1.9985 2.9121
H -1.9142 -1.8336 1.4472
H -0.3228 0.4405 2.7572
H -1.3709 0.6048 1.3454
H -3.3415 -0.0911 2.7108
H -2.5421 1.3408 3.3825
H -2.2951 -0.2435 4.1363


