%nproc=12
%mem=12GB
%chk=00000337.chk
#p opt freq b3lyp/6-31g*

c1coc(Cc2ccco2)c1

0 1
C -0.3702 -3.5682 -0.1143
C -1.0546 -3.1020 0.9832
O -1.3131 -1.7752 0.8553
C -0.7860 -1.3801 -0.3404
C -0.9513 0.0528 -0.7031
C 0.3352 0.7973 -0.6496
C 1.1511 1.2073 0.3856
C 2.2424 1.8839 -0.2095
C 2.0228 1.8463 -1.5662
O 0.8671 1.1901 -1.8439
C -0.1967 -2.4564 -0.9726
H -0.0368 -4.5837 -0.2740
H -1.4144 -3.5620 1.8928
H -1.3822 0.1191 -1.7094
H -1.6694 0.5313 -0.0264
H 0.9767 1.0305 1.4382
H 3.0858 2.3414 0.2877
H 2.5650 2.2199 -2.4236
H 0.3010 -2.4329 -1.9325


