%nproc=12
%mem=12GB
%chk=00000332.chk
#p opt freq b3lyp/6-31g*

C1CCC2CCCC2C1

0 1
C -0.7975 -1.0973 -0.5019
C -1.4561 -0.0418 -1.3927
C -1.1160 1.3961 -0.9690
C 0.2171 1.4754 -0.2308
C 0.9886 2.7809 -0.3737
C 2.4437 2.3996 -0.0688
C 2.5142 0.8668 -0.1046
C 1.2058 0.4428 -0.7592
C 0.7345 -0.9783 -0.4650
H -1.1884 -0.9901 0.5181
H -1.0786 -2.1024 -0.8365
H -1.1232 -0.1972 -2.4269
H -2.5439 -0.1750 -1.3949
H -1.1178 2.0356 -1.8597
H -1.9056 1.7846 -0.3142
H 0.0370 1.2929 0.8391
H 0.9196 3.1713 -1.3961
H 0.6184 3.5561 0.3044
H 3.1162 2.8427 -0.8113
H 2.7509 2.7712 0.9148
H 2.5878 0.4802 0.9189
H 3.3880 0.5105 -0.6588
H 1.3075 0.5602 -1.8484
H 1.1755 -1.6568 -1.2055
H 1.0911 -1.3228 0.5131


