%nproc=12
%mem=12GB
%chk=00000046.chk
#p opt freq b3lyp/6-31g*

C=CC(=O)OCC

0 1
C 1.5203 1.4829 1.4529
C 2.1762 0.3683 1.1034
C 1.5436 -0.8724 0.6054
O 2.1995 -1.8579 0.3025
O 0.1957 -0.7564 0.5394
C -0.4695 -1.9314 0.0624
C -1.9604 -1.6557 0.0426
H 0.4390 1.5612 1.3946
H 2.0637 2.3518 1.8098
H 3.2578 0.3191 1.1723
H -0.1236 -2.1674 -0.9502
H -0.2581 -2.7737 0.7308
H -2.5138 -2.5280 -0.3163
H -2.1860 -0.8024 -0.6055
H -2.3181 -1.3976 1.0448


