%nproc=12
%mem=12GB
%chk=00000134.chk
#p opt freq b3lyp/6-31g*

COCC(C)O

0 1
C 0.5199 -0.0065 -0.6941
O -0.6969 0.3718 -0.0637
C -0.4992 0.9779 1.2122
C -0.1912 -0.0320 2.3282
C -1.2711 -1.0987 2.4619
O -0.0502 0.6526 3.5745
H 1.0245 -0.7944 -0.1287
H 1.1797 0.8585 -0.8107
H 0.2820 -0.3970 -1.6874
H 0.2819 1.7467 1.1573
H -1.4228 1.5144 1.4605
H 0.7631 -0.5289 2.1270
H -1.0417 -1.7698 3.2966
H -2.2443 -0.6458 2.6810
H -1.3610 -1.6968 1.5503
H -0.9255 0.9955 3.8262


