%nproc=12
%mem=12GB
%chk=00000219.chk
#p opt freq b3lyp/6-31g*

COC(=O)CCC(=O)OC

0 1
C -1.2973 -2.5989 -2.3770
O -0.7549 -2.0783 -1.1626
C -1.6953 -1.6546 -0.2762
O -2.9059 -1.7210 -0.4357
C -1.0406 -1.0814 0.9536
C -0.3362 0.2278 0.6462
C -1.2987 1.2574 0.1139
O -1.2929 1.6638 -1.0395
O -2.1560 1.6577 1.0907
C -3.1300 2.6062 0.6528
H -0.4642 -2.8913 -3.0221
H -1.9070 -3.4851 -2.1749
H -1.8839 -1.8333 -2.8946
H -0.3370 -1.8205 1.3525
H -1.8162 -0.9407 1.7155
H 0.4526 0.0834 -0.1014
H 0.1484 0.6316 1.5420
H -3.7754 2.8456 1.5024
H -2.6432 3.5270 0.3168
H -3.7491 2.1808 -0.1433


