%nproc=12
%mem=12GB
%chk=00000005.chk
#p opt freq b3lyp/6-31g*

C=C(C)CC

0 1
C -1.1599 2.2731 2.1184
C -0.5208 1.2179 1.5872
C -1.1928 0.3099 0.5954
C 0.9177 0.9088 1.9298
C 1.0642 -0.3469 2.7777
H -2.1900 2.5024 1.8627
H -0.6718 2.9361 2.8265
H -0.6171 0.2713 -0.3351
H -2.2027 0.6521 0.3451
H -1.2777 -0.7048 0.9959
H 1.4953 0.7985 1.0042
H 1.3694 1.7489 2.4721
H 2.1155 -0.5010 3.0421
H 0.4902 -0.2666 3.7068
H 0.7231 -1.2372 2.2398


