%nproc=12
%mem=12GB
%chk=00000058.chk
#p opt freq b3lyp/6-31g*

CCN(C)CC

0 2
C -0.9001 0.5680 2.2794
C 0.0928 -0.0901 1.3266
N -0.4939 -0.3841 0.0123
C -1.4957 -1.4475 0.0718
C 0.5321 -0.6528 -1.0073
C 1.4158 -1.8764 -0.7797
H -1.7002 -0.1179 2.5733
H -0.3859 0.8828 3.1936
H -1.3522 1.4569 1.8269
H 0.9268 0.6122 1.2023
H 0.5014 -0.9935 1.7954
H -1.1018 -2.3715 0.5085
H -1.8791 -1.6763 -0.9292
H -2.3641 -1.1353 0.6606
H 0.0417 -0.7511 -1.9843
H 1.1754 0.2314 -1.1015
H 2.1351 -1.9691 -1.6004
H 1.9877 -1.7967 0.1496
H 0.8306 -2.8002 -0.7510


