%nproc=12
%mem=12GB
%chk=00000196.chk
#p opt freq b3lyp/6-31g*

CCC(=O)OC(=O)CC

0 1
C 0.4681 -3.1977 1.4333
C 1.5383 -2.2029 1.0302
C 1.1540 -1.4793 -0.2382
O 1.6176 -1.7754 -1.3286
O 0.2453 -0.5154 0.0615
C -0.2364 0.2370 -0.9615
O 0.0398 0.1721 -2.1495
C -1.2387 1.2250 -0.4145
C -2.5719 0.5549 -0.1482
H 0.2894 -3.9259 0.6352
H 0.7712 -3.7412 2.3333
H -0.4816 -2.6938 1.6415
H 2.4897 -2.7181 0.8567
H 1.7183 -1.4699 1.8242
H -1.3588 2.0324 -1.1455
H -0.8355 1.6825 0.4956
H -2.4742 -0.2341 0.6048
H -2.9688 0.0961 -1.0599
H -3.3010 1.2855 0.2148


