%nproc=12
%mem=12GB
%chk=00000063.chk
#p opt freq b3lyp/6-31g*

NC1CCC1

0 2
N 0.9605 -1.7929 1.1132
C 0.2388 -0.6261 1.6244
C -1.2282 -0.6883 1.1534
C -0.8294 0.1352 -0.0893
C 0.4447 0.5656 0.6675
H 1.9714 -1.7270 1.2255
H 0.8018 -2.0048 0.1290
H 0.3946 -0.4283 2.6874
H -1.9140 -0.1496 1.8190
H -1.6534 -1.6765 0.9535
H -0.6327 -0.4722 -0.9798
H -1.5139 0.9440 -0.3585
H 1.3654 0.5857 0.0766
H 0.3367 1.5371 1.1654


