%nproc=12
%mem=12GB
%chk=00000091.chk
#p opt freq b3lyp/6-31g*

CC(=O)N(C)C(C)=O

0 2
C 0.4050 -0.1479 2.3527
C 1.2036 0.7334 1.4260
O 2.2957 1.1768 1.7842
N 0.6560 0.9931 0.1661
C 1.6156 1.2698 -0.8889
C -0.6761 1.2868 -0.1586
C -1.6493 1.5227 0.9681
O -1.0673 1.3846 -1.3244
H -0.1331 0.4598 3.0829
H 1.0967 -0.8077 2.8864
H -0.2849 -0.7887 1.7985
H 1.7079 2.3550 -1.0021
H 2.5980 0.8474 -0.6562
H 1.2710 0.8455 -1.8372
H -2.0672 0.5753 1.3136
H -1.1801 2.0712 1.7879
H -2.4709 2.1451 0.5981


