%nproc=12
%mem=12GB
%chk=00000258.chk
#p opt freq b3lyp/6-31g*

CCC1=CC=CC1

0 1
C -1.7184 -0.3911 -1.1024
C -1.5932 -0.1213 0.3895
C -0.3177 0.5664 0.7402
C 0.6954 0.0917 1.4829
C 1.7203 1.0957 1.5950
C 1.3422 2.1953 0.9285
C -0.0065 1.9749 0.3066
H -2.6485 -0.9298 -1.3107
H -1.7364 0.5406 -1.6773
H -0.8851 -1.0017 -1.4661
H -2.4385 0.4910 0.7242
H -1.6651 -1.0746 0.9271
H 0.7537 -0.8837 1.9420
H 2.6426 0.9636 2.1398
H 1.9135 3.1070 0.8432
H 0.0510 2.0604 -0.7824
H -0.7398 2.6855 0.6994


