%nproc=12
%mem=12GB
%chk=00000295.chk
#p opt freq b3lyp/6-31g*

Oc1ccc(O)c(O)c1

0 1
O 2.5132 -1.0465 0.5391
C 1.4882 -0.1956 0.2451
C 0.5106 0.1129 1.1936
C -0.5274 0.9890 0.8609
C -0.5667 1.5396 -0.4159
O -1.5559 2.4022 -0.8004
C 0.4161 1.2225 -1.3524
O 0.3654 1.7705 -2.6027
C 1.4492 0.3548 -1.0317
H 2.4159 -1.3522 1.4553
H 0.5429 -0.3179 2.1897
H -1.2841 1.2250 1.6017
H -2.1604 2.5252 -0.0486
H -0.4328 2.3347 -2.5910
H 2.2114 0.1114 -1.7641


