%nproc=12
%mem=12GB
%chk=00000159.chk
#p opt freq b3lyp/6-31g*

COP(=O)(OC)OC

0 2
C -2.1361 1.0998 -0.4346
O -2.4912 -0.2664 -0.3769
P -1.3186 -1.3602 -0.2118
O -1.7937 -2.7781 -0.1606
O -0.5122 -0.8683 1.0930
C -1.0863 -1.1924 2.3427
O -0.3072 -1.0278 -1.4206
C -0.6753 -1.5121 -2.6959
H -1.4890 1.2924 -1.2940
H -3.0484 1.6914 -0.5466
H -1.6344 1.4055 0.4869
H -1.0576 -2.2741 2.4981
H -2.1190 -0.8362 2.3920
H -0.5069 -0.7065 3.1316
H -1.6827 -1.1755 -2.9556
H -0.6329 -2.6045 -2.7076
H 0.0289 -1.1232 -3.4356


