%nproc=12
%mem=12GB
%chk=00000144.chk
#p opt freq b3lyp/6-31g*

CC(C)(C)SC(C)(C)C

0 1
C -2.6891 0.1843 0.7899
C -1.4249 1.0474 0.8926
C -1.1047 1.7193 -0.4429
C -1.7033 2.1644 1.9234
S -0.0211 0.0837 1.6304
C 0.7214 -0.9943 0.3151
C 1.6609 -0.1873 -0.5903
C 1.5838 -2.0103 1.0972
C -0.2942 -1.7865 -0.5087
H -2.6151 -0.5873 0.0218
H -3.5556 0.8019 0.5229
H -2.9257 -0.3057 1.7416
H -1.0196 1.0029 -1.2622
H -0.1820 2.3077 -0.3897
H -1.9073 2.4104 -0.7290
H -2.5420 2.7934 1.6003
H -0.8377 2.8260 2.0507
H -1.9711 1.7588 2.9069
H 2.2297 -0.8563 -1.2479
H 2.3911 0.3880 -0.0093
H 1.1289 0.5051 -1.2448
H 0.9758 -2.6274 1.7702
H 2.3605 -1.5168 1.6943
H 2.0976 -2.6955 0.4117
H -0.9939 -2.3363 0.1304
H -0.8633 -1.1538 -1.1925
H 0.2140 -2.5284 -1.1372


