%nproc=12
%mem=12GB
%chk=00000137.chk
#p opt freq b3lyp/6-31g*

CC(C)S

0 1
C 0.9743 0.3101 -0.2205
C 0.4321 -1.0577 -0.6173
C -0.2674 -1.7396 0.5525
S -0.7320 -0.8779 -2.0105
H 0.1789 0.9814 0.1229
H 1.4936 0.7912 -1.0568
H 1.6965 0.2107 0.5975
H 1.2605 -1.6880 -0.9577
H -0.6401 -2.7309 0.2714
H -1.1109 -1.1478 0.9258
H 0.4311 -1.8783 1.3852
H -1.6210 -0.0999 -1.3753


