%nproc=12
%mem=12GB
%chk=00000349.chk
#p opt freq b3lyp/6-31g*

c1ccc2c(c1)sc1ccccc12

0 1
C 2.2635 2.5151 0.5075
C 2.8118 1.9417 -0.6296
C 2.0961 0.9779 -1.3463
C 0.8023 0.5705 -0.9261
C 0.2767 1.1652 0.2216
C 0.9939 2.1374 0.9480
S -1.2866 0.5599 0.5840
C -1.2958 -0.4965 -0.7671
C -2.3313 -1.3763 -1.1426
C -2.1698 -2.1695 -2.2800
C -1.0064 -2.0930 -3.0303
C 0.0174 -1.2186 -2.6533
C -0.1138 -0.3975 -1.5021
H 2.8238 3.2644 1.0618
H 3.8012 2.2407 -0.9670
H 2.5402 0.5381 -2.2356
H 0.5658 2.5878 1.8393
H -3.2437 -1.4376 -0.5559
H -2.9634 -2.8510 -2.5770
H -0.8874 -2.7137 -3.9149
H 0.9232 -1.1707 -3.2523


