%nproc=12
%mem=12GB
%chk=00000128.chk
#p opt freq b3lyp/6-31g*

CCOC(=O)CCl

0 2
C -0.2233 -1.0645 0.9013
C -0.3341 0.4368 1.0886
O -0.7169 1.0619 -0.1454
C 0.3032 1.3967 -0.9863
O 1.4886 1.1653 -0.7819
C -0.2224 2.0629 -2.2294
H 0.0116 -1.5573 1.8490
H 0.5567 -1.3136 0.1750
H -1.1619 -1.4738 0.5134
H 0.5973 0.8626 1.4791
H -1.1201 0.6601 1.8174
H -1.0038 1.4481 -2.6849
H 0.5909 2.1863 -2.9498


