%nproc=12
%mem=12GB
%chk=00000023.chk
#p opt freq b3lyp/6-31g*

C/C=C\c1ccccc1

0 1
C 2.9871 -0.6286 0.3920
C 2.5287 -1.8324 -0.3682
C 1.3318 -2.0286 -0.9439
C 0.2074 -1.0915 -0.9095
C -0.2195 -0.4797 -2.0927
C -1.3005 0.4044 -2.0777
C -1.9632 0.6768 -0.8815
C -1.5474 0.0651 0.3003
C -0.4665 -0.8188 0.2865
H 2.2670 0.1934 0.3776
H 3.1795 -0.8994 1.4346
H 3.9208 -0.2560 -0.0414
H 3.2717 -2.6217 -0.4703
H 1.1469 -2.9472 -1.4968
H 0.2907 -0.6830 -3.0310
H -1.6246 0.8801 -2.9995
H -2.8045 1.3649 -0.8706
H -2.0648 0.2742 1.2327
H -0.1529 -1.2946 1.2125


