%nproc=12
%mem=12GB
%chk=00000212.chk
#p opt freq b3lyp/6-31g*

COCC(=O)O

0 1
C -0.1648 -1.3784 -1.0935
O 0.0844 -0.0549 -0.6388
C -0.9813 0.4681 0.1424
C -2.2414 0.8771 -0.6151
O -2.4657 0.7724 -1.8095
O -3.1792 1.4006 0.2051
H -1.0390 -1.4146 -1.7488
H 0.7063 -1.7130 -1.6636
H -0.3031 -2.0552 -0.2448
H -0.5960 1.3719 0.6264
H -1.2541 -0.2492 0.9248
H -3.9164 1.6281 -0.4006


