%nproc=12
%mem=12GB
%chk=00000148.chk
#p opt freq b3lyp/6-31g*

COS(=O)OC

0 1
C 1.2522 0.2018 1.4274
O 0.7114 1.5122 1.3708
S -0.7553 1.6142 0.7157
O -0.7721 0.7705 -0.5236
O -0.6775 3.1586 0.2688
C -1.5463 3.5192 -0.7933
H 2.1846 0.2436 1.9980
H 1.4866 -0.1677 0.4238
H 0.5716 -0.4877 1.9386
H -1.2302 3.0529 -1.7321
H -1.4941 4.6044 -0.9211
H -2.5844 3.2534 -0.5657


