%nproc=12
%mem=12GB
%chk=00000377.chk
#p opt freq b3lyp/6-31g*

Cc1c2ccccc2cc2ccccc12

0 1
C -0.9523 -2.9088 -0.8722
C -0.6546 -1.5149 -0.3589
C -1.0004 -1.1652 0.9867
C -1.6576 -2.0313 1.8967
C -1.9598 -1.6465 3.2064
C -1.6181 -0.3786 3.6493
C -0.9838 0.5031 2.7785
C -0.6790 0.1283 1.4578
C -0.0596 1.0478 0.6047
C 0.2354 0.7376 -0.7271
C 0.8283 1.7105 -1.5514
C 1.1173 1.4440 -2.8869
C 0.8114 0.1999 -3.4154
C 0.2259 -0.7763 -2.6039
C -0.0699 -0.5452 -1.2366
H -1.9577 -2.9425 -1.3023
H -0.8708 -3.6622 -0.0838
H -0.2266 -3.2329 -1.6233
H -1.9604 -3.0307 1.5967
H -2.4636 -2.3409 3.8735
H -1.8487 -0.0717 4.6656
H -0.7308 1.4978 3.1400
H 0.1826 2.0400 0.9827
H 1.0668 2.6955 -1.1552
H 1.5730 2.2081 -3.5104
H 1.0235 -0.0175 -4.4589
H -0.0064 -1.7288 -3.0721


