%nproc=12
%mem=12GB
%chk=00000244.chk
#p opt freq b3lyp/6-31g*

CC(=O)OCc1ccccc1

0 1
C 2.3230 -2.1714 0.7257
C 1.9359 -1.7112 -0.6467
O 1.9307 -2.4301 -1.6359
O 1.6045 -0.3936 -0.6135
C 1.1695 0.1679 -1.8574
C -0.3360 0.1737 -1.9066
C -1.0287 -0.8566 -2.5573
C -2.4240 -0.8623 -2.5871
C -3.1397 0.1565 -1.9609
C -2.4615 1.1792 -1.3000
C -1.0660 1.1863 -1.2686
H 2.5762 -3.2350 0.6935
H 3.1981 -1.6149 1.0704
H 1.4841 -2.0348 1.4128
H 1.5433 1.1976 -1.9013
H 1.6003 -0.3439 -2.7268
H -0.4819 -1.6653 -3.0398
H -2.9517 -1.6650 -3.0955
H -4.2262 0.1502 -1.9834
H -3.0199 1.9695 -0.8051
H -0.5495 1.9847 -0.7404


