%nproc=12
%mem=12GB
%chk=00000254.chk
#p opt freq b3lyp/6-31g*

CC(=O)c1ccco1

0 1
C 2.1182 -1.8138 0.8833
C 2.2049 -1.2128 -0.4979
O 2.9025 -1.7408 -1.3648
C 1.4365 -0.0092 -0.7314
C 1.3007 0.7740 -1.8623
C 0.4232 1.8314 -1.5233
C 0.0759 1.6319 -0.2086
O 0.6833 0.5207 0.2814
H 1.0850 -2.0944 1.1054
H 2.7396 -2.7130 0.9305
H 2.4846 -1.0998 1.6260
H 1.7840 0.5915 -2.8131
H 0.0857 2.6387 -2.1582
H -0.5599 2.1627 0.4868


