%nproc=12
%mem=12GB
%chk=00000331.chk
#p opt freq b3lyp/6-31g*

C1CCC(CCC2CCCCC2)CC1

0 1
C 1.5727 0.0890 3.7492
C 0.7716 1.2665 3.2014
C -0.7131 0.9276 3.0833
C -0.9731 -0.3377 2.2481
C -0.6985 -0.1579 0.7362
C -1.6234 0.8707 0.0713
C -1.5141 0.9719 -1.4641
C -0.1045 1.3605 -1.9356
C -0.0505 1.5220 -3.4543
C -0.5438 0.2684 -4.1710
C -1.9356 -0.1412 -3.6979
C -1.9897 -0.3026 -2.1790
C -0.1506 -1.5092 2.8175
C 1.3377 -1.1870 2.9467
H 1.2895 -0.0850 4.7948
H 2.6404 0.3356 3.7470
H 1.1685 1.5613 2.2232
H 0.8968 2.1308 3.8638
H -1.2581 1.7871 2.6809
H -1.1137 0.7661 4.0932
H -2.0344 -0.5989 2.3571
H 0.3445 0.1303 0.5730
H -0.8342 -1.1308 0.2513
H -2.6641 0.6398 0.3319
H -1.4133 1.8641 0.4844
H -2.1938 1.7828 -1.7642
H 0.2045 2.2988 -1.4603
H 0.6227 0.5950 -1.6401
H -0.6660 2.3796 -3.7524
H 0.9769 1.7434 -3.7646
H 0.1588 -0.5545 -3.9902
H -0.5586 0.4435 -5.2526
H -2.2259 -1.0823 -4.1786
H -2.6654 0.6156 -4.0109
H -3.0165 -0.5406 -1.8773
H -1.3657 -1.1582 -1.8969
H -0.5419 -1.7638 3.8112
H -0.2807 -2.4034 2.1966
H 1.7859 -1.0832 1.9518
H 1.8509 -2.0239 3.4343


