%nproc=12
%mem=12GB
%chk=00000347.chk
#p opt freq b3lyp/6-31g*

O=C(Nc1ccccc1)Nc1ccccc1

0 1
O 0.9323 0.5461 0.3994
C -0.1832 0.4777 -0.0982
N -0.7737 1.4681 -0.8723
C -0.2757 2.7602 -1.1413
C -0.9607 3.5250 -2.0953
C -0.5374 4.8190 -2.4111
C 0.5730 5.3629 -1.7719
C 1.2557 4.6136 -0.8169
C 0.8319 3.3185 -0.5009
N -1.0477 -0.6019 0.0269
C -0.7853 -1.8474 0.6350
C -1.8690 -2.7208 0.8001
C -1.6906 -3.9778 1.3844
C -0.4249 -4.3759 1.8049
C 0.6596 -3.5183 1.6382
C 0.4809 -2.2601 1.0534
H -1.5675 1.1802 -1.4223
H -1.8306 3.1258 -2.6096
H -1.0742 5.4008 -3.1557
H 0.9061 6.3684 -2.0147
H 2.1217 5.0336 -0.3114
H 1.3869 2.7742 0.2569
H -2.0113 -0.4219 -0.2069
H -2.8678 -2.4362 0.4809
H -2.5394 -4.6447 1.5108
H -0.2815 -5.3523 2.2602
H 1.6515 -3.8243 1.9613
H 1.3553 -1.6281 0.9331


