%nproc=12
%mem=12GB
%chk=00000285.chk
#p opt freq b3lyp/6-31g*

CC(=O)OC1CCCCC1

0 1
C -0.3317 -2.9438 -1.4271
C -1.0586 -1.6703 -1.1205
O -2.0043 -1.2431 -1.7668
O -0.5071 -1.0748 -0.0279
C -1.1053 0.1674 0.3854
C -0.5409 1.3280 -0.4330
C -1.1595 2.6663 -0.0267
C -1.6438 2.7003 1.4241
C -0.7911 1.8184 2.3260
C -0.7971 0.3555 1.8777
H 0.7164 -2.7279 -1.6494
H -0.7836 -3.4170 -2.3036
H -0.4128 -3.6301 -0.5805
H -2.1955 0.1147 0.2615
H -0.6861 1.1628 -1.5068
H 0.5480 1.3675 -0.2949
H -2.0061 2.8983 -0.6842
H -0.4197 3.4592 -0.1901
H -1.6398 3.7338 1.7888
H -2.6856 2.3585 1.4682
H 0.2406 2.1925 2.3174
H -1.1377 1.8876 3.3633
H 0.1644 -0.1047 2.1392
H -1.5462 -0.2023 2.4545


