%nproc=12
%mem=12GB
%chk=00000004.chk
#p opt freq b3lyp/6-31g*

C/C=C/CCC

0 1
C 2.1832 -0.8401 -1.7738
C 1.1032 -0.6396 -0.7596
C 0.3550 0.4716 -0.6754
C -0.7539 0.7634 0.3023
C -0.9355 -0.1735 1.5018
C 0.1724 -0.0426 2.5381
H 2.2956 0.0232 -2.4372
H 1.9577 -1.7164 -2.3893
H 3.1395 -1.0100 -1.2699
H 0.9445 -1.4680 -0.0747
H 0.5367 1.2719 -1.3928
H -0.6115 1.7852 0.6766
H -1.6914 0.7749 -0.2680
H -1.8864 0.0745 1.9896
H -1.0204 -1.2153 1.1730
H 0.2393 0.9851 2.9097
H -0.0341 -0.6959 3.3919
H 1.1481 -0.3227 2.1319


