%nproc=12
%mem=12GB
%chk=00000139.chk
#p opt freq b3lyp/6-31g*

Sc1ccccc1

0 1
S -0.7845 -2.7714 -2.1517
C -0.4930 -1.2628 -1.2545
C -1.3345 -0.8824 -0.2050
C -1.0998 0.3075 0.4880
C -0.0263 1.1227 0.1321
C 0.8117 0.7509 -0.9180
C 0.5776 -0.4385 -1.6115
H -1.1898 -3.4999 -1.1017
H -2.1810 -1.5016 0.0803
H -1.7568 0.5996 1.3033
H 0.1553 2.0493 0.6708
H 1.6469 1.3872 -1.1994
H 1.2372 -0.7151 -2.4306


