%nproc=12
%mem=12GB
%chk=00000287.chk
#p opt freq b3lyp/6-31g*

CCC1(C)CCCC1

0 1
C 0.3738 2.8461 -0.0134
C -0.5587 1.6757 -0.3031
C -0.1678 0.3292 0.3644
C -0.1146 0.4693 1.8900
C -1.1697 -0.7690 -0.0447
C -0.7131 -1.2383 -1.4251
C 0.7672 -0.8742 -1.5299
C 1.1430 -0.2571 -0.1859
H 0.3977 3.0897 1.0523
H 0.0223 3.7378 -0.5434
H 1.3944 2.6454 -0.3495
H -1.5669 1.9573 0.0283
H -0.6235 1.5594 -1.3915
H 0.7031 1.1252 2.2053
H 0.0488 -0.5000 2.3748
H -1.0531 0.8780 2.2801
H -1.1203 -1.6170 0.6505
H -2.2077 -0.4200 -0.0568
H -0.8744 -2.3143 -1.5479
H -1.2810 -0.7321 -2.2139
H 1.3863 -1.7487 -1.7544
H 0.9181 -0.1512 -2.3397
H 1.9487 0.4750 -0.2863
H 1.5129 -1.0512 0.4763


