%nproc=12
%mem=12GB
%chk=00000192.chk
#p opt freq b3lyp/6-31g*

CCCC(C)=O

0 1
C 1.9015 -1.1693 1.3920
C 0.4320 -0.8944 1.1187
C -0.1170 -1.8183 0.0395
C -1.5957 -1.5793 -0.1786
C -1.9870 -0.3999 -1.0297
O -2.4445 -2.3020 0.3435
H 2.0510 -2.1978 1.7356
H 2.2755 -0.4944 2.1681
H 2.5031 -1.0169 0.4902
H 0.3119 0.1525 0.8168
H -0.1404 -1.0212 2.0455
H 0.4075 -1.6757 -0.9117
H 0.0185 -2.8684 0.3240
H -1.7186 0.5296 -0.5227
H -1.4834 -0.4613 -1.9976
H -3.0673 -0.4128 -1.1993


