%nproc=12
%mem=12GB
%chk=00000238.chk
#p opt freq b3lyp/6-31g*

O=C(O)Cc1ccccc1

0 1
O -0.8868 -2.7376 0.6041
C 0.2901 -2.5528 0.3468
O 1.0962 -3.6103 0.1026
C 1.0410 -1.2476 0.2507
C 0.1911 -0.0281 0.5142
C 0.0485 0.4721 1.8162
C -0.7454 1.5941 2.0597
C -1.4078 2.2229 1.0073
C -1.2802 1.7288 -0.2894
C -0.4870 0.6070 -0.5359
H 0.4970 -4.3813 0.1948
H 1.8696 -1.2723 0.9686
H 1.4778 -1.1736 -0.7524
H 0.5512 -0.0108 2.6511
H -0.8514 1.9744 3.0723
H -2.0287 3.0940 1.1986
H -1.8033 2.2142 -1.1090
H -0.4060 0.2304 -1.5530


