%nproc=12
%mem=12GB
%chk=00000185.chk
#p opt freq b3lyp/6-31g*

CC(C(C)(C)C)C(C)(C)C

0 1
C 0.6370 -2.3983 -0.5459
C -0.1734 -1.1974 0.0090
C 0.1944 -0.9472 1.5416
C -0.4282 0.3280 2.1352
C 1.7153 -0.9023 1.8038
C -0.3764 -2.1182 2.3926
C -0.1722 0.0156 -1.0300
C 1.1384 0.8186 -1.0342
C -0.3820 -0.5127 -2.4772
C -1.3515 0.9868 -0.7853
H 0.1675 -2.8127 -1.4437
H 0.6896 -3.2315 0.1584
H 1.6619 -2.1111 -0.7990
H -1.2175 -1.5470 0.0188
H -1.5077 0.3644 1.9564
H -0.2861 0.3684 3.2225
H 0.0376 1.2344 1.7420
H 2.2075 -1.8417 1.5327
H 2.2082 -0.0959 1.2581
H 1.9216 -0.7372 2.8685
H -1.4572 -2.2222 2.2441
H 0.0906 -3.0778 2.1551
H -0.2084 -1.9484 3.4631
H 1.2824 1.3766 -0.1062
H 2.0078 0.1715 -1.1867
H 1.1409 1.5590 -1.8434
H 0.4813 -1.0839 -2.8348
H -1.2723 -1.1484 -2.5395
H -0.5176 0.3112 -3.1885
H -1.1936 1.6472 0.0677
H -1.4999 1.6534 -1.6439
H -2.2892 0.4416 -0.6330


