%nproc=12
%mem=12GB
%chk=00000352.chk
#p opt freq b3lyp/6-31g*

O=S(=O)(c1ccccc1)c1ccccc1

0 1
O -3.6234 1.0302 0.4364
S -2.3661 0.7838 1.1205
O -2.1935 1.1998 2.5013
C -2.0520 -0.9648 1.0447
C -1.2757 -1.5711 2.0367
C -1.0412 -2.9447 1.9782
C -1.5872 -3.7037 0.9414
C -2.3747 -3.0951 -0.0377
C -2.6145 -1.7221 0.0129
C -1.0777 1.5538 0.1670
C 0.1145 1.9276 0.7942
C 1.1188 2.5408 0.0455
C 0.9259 2.7851 -1.3155
C -0.2731 2.4236 -1.9328
C -1.2829 1.8100 -1.1919
H -0.8580 -0.9886 2.8547
H -0.4385 -3.4269 2.7443
H -1.4057 -4.7754 0.9013
H -2.8069 -3.6939 -0.8359
H -3.2399 -1.2569 -0.7457
H 0.2665 1.7526 1.8568
H 2.0503 2.8357 0.5229
H 1.7096 3.2673 -1.8954
H -0.4216 2.6275 -2.9906
H -2.2193 1.5432 -1.6767


