%nproc=12
%mem=12GB
%chk=00000272.chk
#p opt freq b3lyp/6-31g*

NC1CCCCC1

0 2
N -1.2339 -1.5634 -0.8016
C -1.4911 -0.1509 -0.5100
C -0.7569 0.7469 -1.5155
C 0.7574 0.7749 -1.3047
C 1.1188 1.1362 0.1333
C 0.4238 0.2267 1.1427
C -1.0900 0.2025 0.9295
H -0.2407 -1.7699 -0.7113
H -1.7052 -2.1455 -0.1101
H -2.5694 0.0112 -0.6230
H -0.9785 0.4314 -2.5426
H -1.1434 1.7701 -1.4188
H 1.2071 1.5043 -1.9883
H 1.1899 -0.2000 -1.5585
H 2.2047 1.0741 0.2674
H 0.8335 2.1775 0.3277
H 0.6433 0.5741 2.1588
H 0.8301 -0.7885 1.0640
H -1.4946 1.1939 1.1725
H -1.5492 -0.4977 1.6382


