%nproc=12
%mem=12GB
%chk=00000180.chk
#p opt freq b3lyp/6-31g*

O=S1(=O)C=CC=C1

0 1
O -0.6405 -1.0405 -0.1747
S -1.8602 -0.7832 0.5625
O -3.1429 -0.6696 -0.1001
C -1.9866 -1.9025 1.8856
C -1.8549 -1.2471 3.0472
C -1.6488 0.1748 2.8919
C -1.6268 0.5799 1.6146
H -2.1473 -2.9552 1.7311
H -1.8957 -1.7184 4.0202
H -1.5259 0.8332 3.7416
H -1.4902 1.5778 1.2363


