%nproc=12
%mem=12GB
%chk=00000132.chk
#p opt freq b3lyp/6-31g*

CCOCCO

0 1
C -0.8589 0.2085 -1.0645
C -0.5415 -0.8549 -0.0281
O 0.1399 -0.3323 1.1100
C 1.4747 0.1303 0.8804
C 2.4592 -0.9958 0.5606
O 2.4322 -1.3088 -0.8315
H 0.0479 0.5607 -1.5649
H -1.5301 -0.1911 -1.8305
H -1.3319 1.0776 -0.5964
H 0.0070 -1.6937 -0.4654
H -1.4865 -1.2656 0.3441
H 1.7849 0.5987 1.8206
H 1.4813 0.9076 0.1104
H 2.2167 -1.9020 1.1240
H 3.4783 -0.6770 0.7998
H 3.0427 -2.0545 -0.9635


