%nproc=12
%mem=12GB
%chk=00000308.chk
#p opt freq b3lyp/6-31g*

Cc1cncc(C)c1

0 2
C 0.6592 1.8673 -0.3650
C 0.8524 0.4406 0.0382
C 1.5406 -0.4496 -0.7780
N 1.7713 -1.7435 -0.4646
C 1.3056 -2.1697 0.7300
C 0.6312 -1.3620 1.6382
C 0.1211 -1.9124 2.9315
C 0.3994 -0.0341 1.2715
H 0.5824 1.9594 -1.4535
H -0.2652 2.2717 0.0606
H 1.5020 2.4729 -0.0180
H 1.9378 -0.1400 -1.7411
H 1.5008 -3.2173 0.9435
H 0.7689 -2.7160 3.2974
H -0.8907 -2.3075 2.7982
H 0.0985 -1.1368 3.7042
H -0.1343 0.6309 1.9468


