%nproc=12
%mem=12GB
%chk=00000257.chk
#p opt freq b3lyp/6-31g*

CCc1ccco1

0 1
C 2.3429 -0.3226 -0.0956
C 1.0185 -1.0462 -0.2754
C -0.1159 -0.0937 -0.3582
C -1.0090 0.4014 0.5685
C -1.8633 1.2843 -0.1349
C -1.4373 1.2697 -1.4421
O -0.3765 0.4350 -1.5872
H 2.3467 0.2750 0.8225
H 2.5434 0.3518 -0.9353
H 3.1643 -1.0435 -0.0352
H 0.8619 -1.7327 0.5647
H 1.0554 -1.6582 -1.1840
H -1.0378 0.1552 1.6207
H -2.6877 1.8605 0.2603
H -1.7641 1.7696 -2.3430


