%nproc=12
%mem=12GB
%chk=00000103.chk
#p opt freq b3lyp/6-31g*

NC(=O)Nc1ccccc1

0 1
N 0.8411 -2.8139 0.3407
C 0.6924 -1.6537 -0.3653
O 0.2871 -1.6961 -1.5168
N 1.0524 -0.5624 0.3778
C 0.9664 0.7943 0.0108
C 1.5237 1.7345 0.8873
C 1.4699 3.1001 0.5956
C 0.8553 3.5380 -0.5744
C 0.2946 2.6106 -1.4494
C 0.3483 1.2439 -1.1575
H 0.5275 -2.7909 1.3002
H 0.4876 -3.6107 -0.1766
H 1.5544 -0.7735 1.2269
H 2.0091 1.4187 1.8066
H 1.9082 3.8205 1.2812
H 0.8123 4.5991 -0.8053
H -0.1875 2.9464 -2.3641
H -0.1048 0.5537 -1.8628


