%nproc=12
%mem=12GB
%chk=00000325.chk
#p opt freq b3lyp/6-31g*

c1ccc(-c2ccccc2)cc1

0 1
C -0.5881 -3.1742 -1.4738
C 0.6165 -2.5166 -1.2379
C 0.6385 -1.1265 -1.0950
C -0.5416 -0.3695 -1.1864
C -0.5173 1.0950 -1.0363
C 0.0619 1.6978 0.0929
C 0.0848 3.0878 0.2365
C -0.4709 3.8997 -0.7488
C -1.0496 3.3232 -1.8765
C -1.0727 1.9329 -2.0178
C -1.7455 -1.0531 -1.4254
C -1.7696 -2.4433 -1.5674
H -0.6060 -4.2551 -1.5846
H 1.5412 -3.0831 -1.1673
H 1.5919 -0.6311 -0.9225
H 0.4913 1.0811 0.8800
H 0.5346 3.5339 1.1196
H -0.4530 4.9807 -0.6381
H -1.4816 3.9535 -2.6493
H -1.5195 1.5031 -2.9121
H -2.6816 -0.5021 -1.4906
H -2.7122 -2.9531 -1.7483


