%nproc=12
%mem=12GB
%chk=00000073.chk
#p opt freq b3lyp/6-31g*

CC(C)(C)N=C=O

0 2
C -0.6939 0.9343 1.9868
C -0.4330 -0.1805 0.9620
C 1.0625 -0.5270 0.8967
C -0.8905 0.3038 -0.4242
N -1.2461 -1.3830 1.2639
C -1.0514 -1.9155 2.2915
O -0.8484 -2.4409 3.3228
H -1.7640 1.1596 2.0607
H -0.3480 0.6529 2.9877
H -0.1730 1.8567 1.7069
H 1.2473 -1.3456 0.1918
H 1.6535 0.3372 0.5733
H 1.4480 -0.8413 1.8731
H -1.9594 0.5472 -0.4238
H -0.7350 -0.4714 -1.1836
H -0.3405 1.1982 -0.7371


