%nproc=12
%mem=12GB
%chk=00000184.chk
#p opt freq b3lyp/6-31g*

CC(C)C(C)C(C)C

0 1
C 0.3151 0.2317 -1.4022
C 0.6705 -0.5591 -0.1366
C 1.0065 -2.0000 -0.5499
C -0.4610 -0.5064 0.9431
C -0.0579 -1.3039 2.1961
C -0.9186 0.9447 1.2971
C 0.1855 1.8048 1.9177
C -2.1538 0.9605 2.2075
H 0.2696 1.3067 -1.2055
H 1.0741 0.0892 -2.1795
H -0.6495 -0.0877 -1.8106
H 1.5861 -0.1239 0.2830
H 0.1123 -2.5333 -0.8897
H 1.4516 -2.5620 0.2762
H 1.7372 -2.0125 -1.3663
H -1.3373 -1.0144 0.5152
H -0.8179 -1.2470 2.9798
H 0.8894 -0.9456 2.6112
H 0.0567 -2.3680 1.9676
H -1.2371 1.4351 0.3697
H 0.5264 1.3981 2.8749
H -0.1804 2.8208 2.1035
H 1.0503 1.8901 1.2537
H -2.9403 0.3093 1.8125
H -2.5652 1.9743 2.2713
H -1.9193 0.6423 3.2278


