%nproc=12
%mem=12GB
%chk=00000158.chk
#p opt freq b3lyp/6-31g*

CCOP(=O)(O)OCC

0 2
C 2.3014 1.5431 -1.0050
C 1.1451 1.5836 -0.0278
O 0.2233 0.5654 -0.3725
P -1.0316 0.3639 0.6063
O -1.7594 1.6067 0.9983
O -0.3960 -0.3664 1.8850
O -1.9309 -0.7865 -0.0563
C -1.2869 -1.9542 -0.5336
C -2.3455 -2.9548 -0.9499
H 3.0364 2.3187 -0.7727
H 1.9454 1.6890 -2.0303
H 2.7965 0.5668 -0.9761
H 0.6454 2.5562 -0.0766
H 1.5088 1.4222 0.9920
H -0.9723 -0.2256 2.6586
H -0.6568 -2.3829 0.2517
H -0.6591 -1.6974 -1.3923
H -2.9917 -3.2072 -0.1027
H -2.9905 -2.5331 -1.7279
H -1.8875 -3.8722 -1.3301


