%nproc=12
%mem=12GB
%chk=00000237.chk
#p opt freq b3lyp/6-31g*

SCc1ccccc1

0 1
S 3.4253 -0.4769 -1.2991
C 2.1508 0.7742 -0.9857
C 0.7780 0.1658 -0.8708
C 0.0314 -0.1301 -2.0210
C -1.2359 -0.7054 -1.9150
C -1.7685 -0.9943 -0.6602
C -1.0341 -0.7111 0.4897
C 0.2338 -0.1362 0.3863
H 3.1057 -1.2721 -0.2679
H 2.1684 1.5130 -1.7945
H 2.4063 1.3107 -0.0653
H 0.4376 0.0817 -3.0080
H -1.8058 -0.9315 -2.8125
H -2.7548 -1.4435 -0.5789
H -1.4487 -0.9401 1.4681
H 0.7940 0.0746 1.2947


