%nproc=12
%mem=12GB
%chk=00000084.chk
#p opt freq b3lyp/6-31g*

CCCC(N)=O

0 2
C -0.9050 -1.5667 -0.8005
C 0.0893 -0.7184 -1.5811
C 0.6978 0.3980 -0.7357
C -0.2577 1.5428 -0.4682
N 0.2231 2.4755 0.4048
O -1.3640 1.6711 -0.9759
H -0.4292 -2.0220 0.0740
H -1.2898 -2.3729 -1.4333
H -1.7575 -0.9736 -0.4568
H -0.4021 -0.3051 -2.4694
H 0.8961 -1.3708 -1.9354
H 1.5586 0.8167 -1.2710
H 1.0582 -0.0002 0.2198
H -0.3494 3.2937 0.5678
H 1.1837 2.4868 0.7165


