%nproc=12
%mem=12GB
%chk=00000035.chk
#p opt freq b3lyp/6-31g*

CC(=O)c1ccccc1

0 1
C 1.5921 1.8729 0.7595
C 0.3192 1.7820 -0.0408
O -0.4770 2.7184 -0.0742
C 0.0310 0.5294 -0.8015
C -1.1567 0.4568 -1.5426
C -1.4676 -0.6943 -2.2690
C -0.5943 -1.7799 -2.2599
C 0.5893 -1.7165 -1.5257
C 0.9041 -0.5657 -0.7970
H 1.6400 2.8512 1.2482
H 1.6064 1.1054 1.5376
H 2.4606 1.7805 0.1023
H -1.8468 1.2988 -1.5572
H -2.3911 -0.7412 -2.8408
H -0.8366 -2.6763 -2.8258
H 1.2687 -2.5657 -1.5208
H 1.8341 -0.5514 -0.2368


