%nproc=12
%mem=12GB
%chk=00000241.chk
#p opt freq b3lyp/6-31g*

O=COCc1ccccc1

0 1
O -1.0156 1.8965 -1.4893
C -0.2140 2.3969 -0.7171
O 0.7606 1.7626 -0.0238
C 0.8202 0.3427 -0.2027
C 0.0982 -0.3385 0.9304
C 0.7334 -0.5348 2.1646
C 0.0561 -1.1505 3.2186
C -1.2633 -1.5674 3.0517
C -1.9086 -1.3653 1.8331
C -1.2330 -0.7504 0.7779
H -0.1753 3.4716 -0.4803
H 0.4329 0.0227 -1.1780
H 1.8779 0.0544 -0.1917
H 1.7594 -0.2051 2.3117
H 0.5566 -1.3013 4.1714
H -1.7910 -2.0449 3.8731
H -2.9403 -1.6823 1.7044
H -1.7529 -0.5877 -0.1650


