%nproc=12
%mem=12GB
%chk=00000341.chk
#p opt freq b3lyp/6-31g*

O=C(C1=CC=CC1)c1ccccc1

0 1
O -0.7171 1.7706 2.5503
C -0.8160 0.8167 1.7849
C -1.2659 -0.5085 2.2497
C -1.2920 -0.8595 3.5454
C -1.8772 -2.1690 3.6724
C -2.2322 -2.6165 2.4593
C -1.8718 -1.5958 1.4144
C -0.5285 1.0036 0.3471
C 0.3161 0.1298 -0.3462
C 0.5753 0.3464 -1.7006
C 0.0052 1.4392 -2.3554
C -0.8162 2.3252 -1.6574
C -1.0782 2.1134 -0.3035
H -0.9647 -0.2522 4.3772
H -2.0139 -2.6838 4.6117
H -2.7034 -3.5657 2.2523
H -1.1603 -2.0280 0.7063
H -2.7639 -1.2490 0.8841
H 0.7933 -0.7047 0.1607
H 1.2318 -0.3289 -2.2441
H 0.2130 1.6093 -3.4093
H -1.2455 3.1854 -2.1653
H -1.7065 2.8127 0.2442


