%nproc=12
%mem=12GB
%chk=00000089.chk
#p opt freq b3lyp/6-31g*

CCN(CC)C(C)=O

0 2
C 1.4040 -1.4322 -1.6798
C 0.1137 -1.0168 -0.9903
N -0.0680 0.4346 -1.0067
C 0.4866 1.1921 0.1165
C -0.4827 1.2613 1.2864
C -0.7211 1.0017 -2.0951
C -0.9085 2.4981 -2.0911
O -1.1315 0.3339 -3.0455
H 2.2754 -0.9902 -1.1863
H 1.5137 -2.5207 -1.6567
H 1.4143 -1.1093 -2.7259
H 0.1075 -1.3657 0.0480
H -0.7334 -1.4956 -1.4943
H 1.4229 0.7167 0.4295
H 0.7414 2.2062 -0.2034
H -0.0487 1.8442 2.1046
H -1.4265 1.7316 0.9935
H -0.7151 0.2618 1.6674
H 0.0540 2.9952 -2.2365
H -1.3773 2.8302 -1.1623
H -1.5697 2.7800 -2.9165


