%nproc=12
%mem=12GB
%chk=00000226.chk
#p opt freq b3lyp/6-31g*

CC(C)=CCl

0 2
C 0.3060 -1.2393 0.9011
C 1.1976 -0.1931 0.2911
C 1.4846 -0.3910 -1.1724
C 1.7220 0.8512 0.9490
H 0.1093 -1.0783 1.9642
H 0.7643 -2.2287 0.7994
H -0.6614 -1.2536 0.3880
H 0.5527 -0.3773 -1.7472
H 1.9802 -1.3537 -1.3352
H 2.1361 0.3911 -1.5765
H 2.3623 1.5905 0.4823


