%nproc=12
%mem=12GB
%chk=00000161.chk
#p opt freq b3lyp/6-31g*

c1ccc(P(c2ccccc2)c2ccccc2)cc1

0 2
C -2.9751 -0.2444 -3.4565
C -3.2219 -0.4259 -2.0987
C -2.3565 0.1220 -1.1460
C -1.2282 0.8594 -1.5343
P -0.0442 1.6133 -0.3714
C 1.3139 0.4014 -0.2734
C 2.5106 0.8031 0.3477
C 3.5964 -0.0698 0.4603
C 3.5066 -1.3612 -0.0493
C 2.3327 -1.7781 -0.6703
C 1.2463 -0.9040 -0.7822
C -0.8706 1.4850 1.2483
C -0.6289 0.4648 2.1801
C -1.3025 0.4340 3.4057
C -2.2283 1.4242 3.7217
C -2.4817 2.4469 2.8132
C -1.8079 2.4772 1.5890
C -0.9991 1.0333 -2.9114
C -1.8631 0.4857 -3.8639
H -3.6489 -0.6702 -4.1950
H -4.0900 -0.9947 -1.7750
H -2.5843 -0.0478 -0.0969
H 2.6081 1.8076 0.7565
H 4.5103 0.2624 0.9456
H 4.3497 -2.0415 0.0360
H 2.2577 -2.7858 -1.0711
H 0.3475 -1.2721 -1.2704
H 0.0823 -0.3305 1.9723
H -1.1001 -0.3667 4.1125
H -2.7501 1.3990 4.6746
H -3.2028 3.2237 3.0539
H -2.0267 3.2885 0.8965
H -0.1359 1.5989 -3.2585
H -1.6649 0.6319 -4.9225


