%nproc=12
%mem=12GB
%chk=00000314.chk
#p opt freq b3lyp/6-31g*

CC(O)COCC(C)O

0 1
C 1.4765 -0.0258 2.4188
C 0.6586 0.4904 1.2423
O 1.2844 0.0338 0.0367
C -0.7886 -0.0261 1.3055
O -1.7109 0.7403 0.5224
C -1.4891 0.7475 -0.8865
C -1.6246 -0.6204 -1.5733
C -3.0218 -1.2021 -1.4055
O -1.3608 -0.4895 -2.9724
H 1.5181 -1.1207 2.4158
H 1.0570 0.3078 3.3727
H 2.5109 0.3287 2.3528
H 0.6651 1.5858 1.2241
H 2.1864 0.4003 0.0264
H -0.8515 -1.0813 1.0205
H -1.1545 0.0506 2.3354
H -2.2323 1.4304 -1.3171
H -0.5265 1.2139 -1.1205
H -0.9006 -1.3357 -1.1716
H -3.7768 -0.5400 -1.8436
H -3.2666 -1.3652 -0.3518
H -3.1014 -2.1591 -1.9326
H -0.4206 -0.2519 -3.0574


