%nproc=12
%mem=12GB
%chk=00000339.chk
#p opt freq b3lyp/6-31g*

O=C(Cc1ccccc1)c1ccccc1

0 1
O -1.6119 1.1054 -0.9296
C -0.4385 0.8115 -1.1517
C 0.5612 0.4788 -0.0546
C -0.0036 0.5381 1.3459
C 0.0276 1.7347 2.0757
C -0.4966 1.7888 3.3683
C -1.0619 0.6511 3.9410
C -1.1089 -0.5404 3.2200
C -0.5854 -0.5972 1.9272
C 0.0342 0.7783 -2.5725
C -0.8845 1.0849 -3.5873
C -0.4937 1.0681 -4.9276
C 0.8183 0.7448 -5.2656
C 1.7395 0.4384 -4.2654
C 1.3518 0.4542 -2.9219
H 0.9530 -0.5307 -0.2288
H 1.4025 1.1795 -0.1199
H 0.4524 2.6355 1.6391
H -0.4714 2.7216 3.9252
H -1.4754 0.6959 4.9448
H -1.5613 -1.4245 3.6612
H -0.6429 -1.5315 1.3737
H -1.9135 1.3395 -3.3379
H -1.2149 1.3076 -5.7052
H 1.1227 0.7316 -6.3095
H 2.7632 0.1863 -4.5329
H 2.1002 0.2094 -2.1747


