%nproc=12
%mem=12GB
%chk=00000037.chk
#p opt freq b3lyp/6-31g*

O=Cc1ccccc1

0 1
O -2.2977 1.4464 -2.7459
C -2.1239 1.9130 -1.6270
C -0.8973 1.6548 -0.8467
C -0.7630 2.2188 0.4254
C 0.3947 1.9776 1.1671
C 1.4099 1.1780 0.6391
C 1.2725 0.6165 -0.6312
C 0.1178 0.8539 -1.3773
H -2.8846 2.5530 -1.1494
H -1.5460 2.8429 0.8474
H 0.5079 2.4122 2.1576
H 2.3111 0.9914 1.2188
H 2.0645 -0.0060 -1.0406
H 0.0116 0.4157 -2.3675


