%nproc=12
%mem=12GB
%chk=00000020.chk
#p opt freq b3lyp/6-31g*

CC(C)c1ccccc1

0 1
C 0.4491 -0.9606 1.2795
C -0.0401 -0.5459 -0.1104
C -1.0718 -1.5422 -0.6453
C -0.5816 0.8727 -0.1112
C 0.0385 1.8553 -0.8979
C -0.4431 3.1660 -0.9134
C -1.5505 3.5122 -0.1430
C -2.1770 2.5483 0.6432
C -1.6963 1.2372 0.6595
H 0.9124 -1.9526 1.2440
H -0.3691 -1.0021 2.0067
H 1.1967 -0.2548 1.6581
H 0.8271 -0.5887 -0.7827
H -1.9528 -1.6076 0.0024
H -1.4135 -1.2528 -1.6454
H -0.6370 -2.5450 -0.7169
H 0.9046 1.6070 -1.5073
H 0.0474 3.9164 -1.5276
H -1.9249 4.5321 -0.1553
H -3.0412 2.8161 1.2452
H -2.2017 0.5018 1.2810


