%nproc=12
%mem=12GB
%chk=00000283.chk
#p opt freq b3lyp/6-31g*

O=COC1CCCCC1

0 1
O -1.9878 0.3239 2.0186
C -1.7921 -0.8109 1.6157
O -0.9614 -1.1875 0.6126
C -0.2392 -0.1256 -0.0382
C -1.1169 0.5161 -1.1173
C -0.3405 1.5387 -1.9410
C 0.9231 0.9321 -2.5449
C 1.8005 0.2804 -1.4796
C 1.0190 -0.7395 -0.6583
H -2.2810 -1.7073 2.0278
H 0.0702 0.6278 0.6985
H -1.9888 0.9970 -0.6589
H -1.5214 -0.2640 -1.7754
H -0.0685 2.3890 -1.3036
H -0.9795 1.9303 -2.7405
H 1.4924 1.7093 -3.0671
H 0.6438 0.1819 -3.2950
H 2.6579 -0.2079 -1.9562
H 2.2023 1.0542 -0.8140
H 0.7421 -1.5936 -1.2903
H 1.6567 -1.1517 0.1332


