%nproc=12
%mem=12GB
%chk=00000362.chk
#p opt freq b3lyp/6-31g*

c1ccc(COc2ccccc2)cc1

0 1
C -1.6675 -2.4626 1.3501
C -0.8079 -1.5360 1.9364
C 0.3495 -1.1343 1.2672
C 0.6539 -1.6459 -0.0022
C 1.9180 -1.2481 -0.7324
O 2.3883 0.0599 -0.3939
C 1.9170 1.1201 -1.1179
C 0.7816 1.1212 -1.9285
C 0.4035 2.2846 -2.6062
C 1.1537 3.4516 -2.4719
C 2.2805 3.4597 -1.6539
C 2.6560 2.2980 -0.9770
C -0.2122 -2.5899 -0.5747
C -1.3689 -2.9915 0.0962
H -2.5677 -2.7748 1.8726
H -1.0365 -1.1252 2.9163
H 1.0122 -0.4123 1.7406
H 1.8171 -1.3607 -1.8195
H 2.7043 -1.9485 -0.4257
H 0.1568 0.2417 -2.0402
H -0.4841 2.2800 -3.2338
H 0.8557 4.3546 -2.9981
H 2.8658 4.3679 -1.5391
H 3.5342 2.3091 -0.3363
H 0.0085 -3.0190 -1.5496
H -2.0360 -3.7193 -0.3583


