%nproc=12
%mem=12GB
%chk=00000369.chk
#p opt freq b3lyp/6-31g*

Cc1ccc2ccc(C)cc2c1

0 1
C -2.4273 0.1832 -2.8598
C -1.1370 -0.3096 -2.2750
C -0.5942 -1.5307 -2.6827
C 0.5910 -2.0027 -2.1136
C 1.2522 -1.2680 -1.1176
C 2.4412 -1.7309 -0.5336
C 3.0858 -0.9900 0.4598
C 2.5605 0.2336 0.8823
C 3.2319 1.0146 1.9727
C 1.3654 0.6942 0.3129
C 0.7053 -0.0392 -0.6886
C -0.4886 0.4218 -1.2703
H -2.5488 -0.1668 -3.8903
H -3.2704 -0.1771 -2.2624
H -2.4518 1.2777 -2.8842
H -1.0892 -2.1249 -3.4473
H 0.9938 -2.9543 -2.4528
H 2.8745 -2.6780 -0.8468
H 4.0019 -1.3770 0.9001
H 2.8297 0.7190 2.9466
H 3.0755 2.0897 1.8357
H 4.3132 0.8414 1.9693
H 0.9439 1.6382 0.6532
H -0.9190 1.3645 -0.9377


