%nproc=12
%mem=12GB
%chk=00000099.chk
#p opt freq b3lyp/6-31g*

CNC(N)=O

0 1
C -1.7537 0.9220 -0.8396
N -0.3468 0.6094 -0.8340
C 0.0598 -0.6603 -0.5442
N 1.4120 -0.7559 -0.4754
O -0.6659 -1.6251 -0.3647
H -1.8859 1.9216 -1.2595
H -2.2976 0.1882 -1.4410
H -2.1272 0.8976 0.1878
H 0.2779 1.3249 -0.4913
H 1.9176 -0.2248 -1.1698
H 1.7232 -1.7158 -0.3872


