%nproc=12
%mem=12GB
%chk=00000198.chk
#p opt freq b3lyp/6-31g*

CCC(C)(C)O

0 1
C 0.3043 -2.9535 -0.3186
C 1.0307 -1.6794 -0.7345
C 0.3717 -0.3768 -0.2395
C 1.2237 0.8283 -0.6505
C -1.0524 -0.2067 -0.7705
O 0.2964 -0.3954 1.1875
H -0.6863 -3.0182 -0.7779
H 0.8748 -3.8301 -0.6429
H 0.1892 -3.0125 0.7679
H 2.0498 -1.7407 -0.3311
H 1.1199 -1.6621 -1.8276
H 2.2367 0.7499 -0.2393
H 1.2981 0.9168 -1.7392
H 0.8019 1.7587 -0.2534
H -1.4762 0.7502 -0.4435
H -1.7221 -0.9789 -0.3772
H -1.0812 -0.2393 -1.8643
H 1.1990 -0.5010 1.5338


