%nproc=12
%mem=12GB
%chk=00000002.chk
#p opt freq b3lyp/6-31g*

CCC(C)(C)C

0 1
C 1.1673 0.9030 -2.0935
C 1.1422 0.3171 -0.6869
C 0.5337 1.2257 0.4123
C 0.5962 0.4672 1.7524
C 1.3291 2.5340 0.5542
C -0.9363 1.5577 0.1072
H 0.1602 1.1246 -2.4574
H 1.7662 1.8167 -2.1405
H 1.6147 0.1820 -2.7860
H 0.5858 -0.6287 -0.7233
H 2.1719 0.0548 -0.4103
H 1.6299 0.2198 2.0193
H 0.1769 1.0663 2.5687
H 0.0299 -0.4697 1.7036
H 1.2465 3.1585 -0.3413
H 0.9607 3.1291 1.3978
H 2.3919 2.3332 0.7287
H -1.0349 2.1753 -0.7915
H -1.3938 2.1144 0.9332
H -1.5241 0.6455 -0.0440


