%nproc=12
%mem=12GB
%chk=00000077.chk
#p opt freq b3lyp/6-31g*

CC(C)(C)[N+](=O)[O-]

0 2
C -0.7307 0.1902 1.9450
C 0.0749 0.3508 0.6522
C 0.0617 -0.9602 -0.1439
C -0.4660 1.4958 -0.2094
N 1.5114 0.7101 1.0465
O 2.4240 -0.0505 0.6977
O 1.6734 1.7521 1.6978
H -0.7645 1.1202 2.5242
H -1.7656 -0.0963 1.7267
H -0.2983 -0.5830 2.5908
H 0.4661 -1.7942 0.4417
H 0.6513 -0.8812 -1.0649
H -0.9610 -1.2291 -0.4325
H 0.1551 1.6531 -1.0991
H -1.4863 1.2816 -0.5471
H -0.4963 2.4431 0.3412


