%nproc=12
%mem=12GB
%chk=00000266.chk
#p opt freq b3lyp/6-31g*

CC(C)(C)C1CCCCC1

0 1
C 0.6255 -2.1072 -0.3239
C -0.3337 -0.9598 0.0647
C -1.6476 -1.1522 -0.7163
C -0.6336 -1.1059 1.5724
C 0.3417 0.4298 -0.2257
C 0.6250 0.6993 -1.7152
C 1.5013 1.9411 -1.9162
C 1.2969 3.0151 -0.8493
C -0.1127 2.9765 -0.2822
C -0.4275 1.6314 0.3801
H 0.7979 -2.1515 -1.4035
H 1.5970 -1.9947 0.1703
H 0.2164 -3.0806 -0.0283
H -2.1057 -2.1192 -0.4767
H -1.4811 -1.1361 -1.7983
H -2.3837 -0.3790 -0.4772
H -1.0078 -2.1095 1.8065
H -1.3965 -0.3956 1.9075
H 0.2694 -0.9418 2.1710
H 1.3204 0.4066 0.2780
H -0.3224 0.8490 -2.2481
H 1.1217 -0.1486 -2.1961
H 1.2928 2.3590 -2.9087
H 2.5590 1.6510 -1.9239
H 2.0174 2.8636 -0.0356
H 1.5106 4.0022 -1.2744
H -0.2521 3.7847 0.4448
H -0.8312 3.1590 -1.0914
H -1.5111 1.4816 0.3334
H -0.1755 1.7002 1.4462


