%nproc=12
%mem=12GB
%chk=00000098.chk
#p opt freq b3lyp/6-31g*

CNC(=O)NC

0 1
C -2.8252 0.7486 -1.4416
N -1.3851 0.7342 -1.5034
C -0.6977 -0.3112 -0.9368
O -1.2138 -1.2188 -0.3014
N 0.6489 -0.1973 -1.1820
C 1.5574 -1.1466 -0.5891
H -3.1568 0.5831 -0.4128
H -3.1784 1.7195 -1.7963
H -3.2169 -0.0464 -2.0822
H -0.9664 1.0814 -2.3536
H 0.9705 0.7575 -1.2433
H 1.2152 -2.1660 -0.7883
H 1.5921 -0.9793 0.4910
H 2.5491 -0.9944 -1.0208


