%nproc=12
%mem=12GB
%chk=00000050.chk
#p opt freq b3lyp/6-31g*

CC(C)(C)OC(C)(C)C

0 1
C -1.4664 -1.3920 1.3253
C -1.2611 -0.0541 0.5875
C -2.6139 0.6687 0.5662
C -0.7879 -0.3742 -0.8311
O -0.3152 0.6393 1.4041
C 0.4366 1.7925 1.0203
C -0.3731 2.9091 0.3597
C 0.9776 2.3353 2.3579
C 1.6467 1.4075 0.1599
H -0.5201 -1.9405 1.4040
H -1.8120 -1.2233 2.3523
H -2.1947 -2.0335 0.8176
H -2.6039 1.5435 -0.0882
H -2.8866 1.0194 1.5678
H -3.4114 0.0128 0.1989
H -0.6909 0.5273 -1.4416
H -1.4964 -1.0328 -1.3463
H 0.1875 -0.8722 -0.8189
H -1.2489 3.1715 0.9626
H -0.7294 2.6218 -0.6329
H 0.2313 3.8143 0.2312
H 0.1533 2.5951 3.0327
H 1.6011 3.2248 2.2180
H 1.5733 1.5745 2.8764
H 1.3642 1.1780 -0.8702
H 2.1465 0.5191 0.5618
H 2.3766 2.2234 0.1094


