%nproc=12
%mem=12GB
%chk=00000008.chk
#p opt freq b3lyp/6-31g*

C=C=CC

0 1
C -1.1801 1.1177 1.1438
C -0.5672 1.2193 0.0048
C 0.0466 1.3219 -1.1370
C 1.1473 0.4268 -1.5995
H -2.0673 0.5029 1.2408
H -0.8134 1.6439 2.0174
H -0.2551 2.1151 -1.8151
H 0.8580 -0.0716 -2.5296
H 1.3877 -0.3420 -0.8581
H 2.0508 1.0137 -1.7909


