%nproc=12
%mem=12GB
%chk=00000015.chk
#p opt freq b3lyp/6-31g*

c1ccc2c(c1)CCC2

0 1
C -3.0515 -0.1370 1.0920
C -2.3756 0.8993 1.7557
C -0.9820 0.9808 1.7153
C -0.2894 0.0226 0.9951
C -0.9630 -1.0102 0.3336
C -2.3433 -1.1065 0.3784
C 0.0058 -1.9397 -0.3274
C 1.2723 -1.0723 -0.3657
C 1.1917 -0.1213 0.8373
H -4.1364 -0.1876 1.1396
H -2.9435 1.6416 2.3111
H -0.4599 1.7757 2.2377
H -2.8658 -1.9133 -0.1249
H -0.3103 -2.2289 -1.3335
H 0.1547 -2.8308 0.2911
H 2.1888 -1.6706 -0.3649
H 1.2742 -0.4804 -1.2918
H 1.6234 -0.5789 1.7333
H 1.6856 0.8314 0.6265


