%nproc=12
%mem=12GB
%chk=00000127.chk
#p opt freq b3lyp/6-31g*

FCc1ccccc1

0 2
F -1.4319 -0.8164 1.2989
C -1.4152 -1.1667 -0.0193
C -0.0344 -1.4231 -0.5574
C 1.0933 -1.2987 0.2641
C 2.3706 -1.5388 -0.2450
C 2.5325 -1.9055 -1.5797
C 1.4180 -2.0324 -2.4067
C 0.1398 -1.7926 -1.8990
H -2.0274 -2.0682 -0.1210
H -1.8855 -0.3500 -0.5757
H 0.9797 -1.0129 1.3084
H 3.2389 -1.4394 0.4013
H 3.5276 -2.0922 -1.9748
H 1.5449 -2.3185 -3.4476
H -0.7199 -1.8960 -2.5575


