%nproc=12
%mem=12GB
%chk=00000130.chk
#p opt freq b3lyp/6-31g*

CC(C)=NO

0 2
C 1.1152 -0.8015 -0.7963
C 0.3537 0.2496 -0.0322
C 0.1281 1.5786 -0.7097
N -0.0677 -0.0384 1.1631
O -0.7530 1.0398 1.7334
H 2.1117 -0.4218 -1.0375
H 1.2141 -1.7158 -0.2048
H 0.5828 -1.0309 -1.7233
H 0.5882 2.3757 -0.1193
H -0.9449 1.7649 -0.8069
H 0.5756 1.5785 -1.7073
H -1.0047 0.6874 2.6074


