%nproc=12
%mem=12GB
%chk=00000122.chk
#p opt freq b3lyp/6-31g*

Fc1c(F)c(F)c(F)c(F)c1F

0 1
F 4.6293 -2.4239 0.2025
C 3.5676 -1.6210 0.3559
C 3.6145 -0.3111 -0.1060
F 4.7215 0.1489 -0.7047
C 2.5133 0.5216 0.0530
F 2.5586 1.7846 -0.3923
C 1.3652 0.0445 0.6740
F 0.3035 0.8474 0.8273
C 1.3183 -1.2654 1.1358
F 0.2113 -1.7255 1.7345
C 2.4195 -2.0981 0.9768
F 2.3742 -3.3611 1.4222


