%nproc=12
%mem=12GB
%chk=00000243.chk
#p opt freq b3lyp/6-31g*

NC(=O)Cc1ccccc1

0 2
N -2.5499 -1.3666 0.2881
C -2.0981 -2.3185 -0.5815
O -2.8287 -2.7417 -1.4726
C -0.7045 -2.8620 -0.3261
C 0.3396 -1.7954 -0.0911
C 0.9237 -1.6337 1.1729
C 1.8749 -0.6354 1.3882
C 2.2510 0.2082 0.3445
C 1.6786 0.0538 -0.9166
C 0.7275 -0.9436 -1.1351
H -3.4378 -0.9428 0.0512
H -1.8895 -0.7918 0.7968
H -0.7638 -3.5458 0.5290
H -0.4013 -3.4632 -1.1921
H 0.6449 -2.2852 1.9986
H 2.3264 -0.5176 2.3701
H 2.9943 0.9834 0.5125
H 1.9751 0.7088 -1.7320
H 0.2906 -1.0532 -2.1264


