%nproc=12
%mem=12GB
%chk=00000157.chk
#p opt freq b3lyp/6-31g*

COP(C)(=O)OC

0 2
C -0.5842 2.4884 0.6741
O -0.3387 1.0957 0.6676
P 0.3122 0.4715 -0.6716
C -1.0717 0.1812 -1.7535
O 1.3908 1.3206 -1.2717
O 0.8181 -0.9850 -0.2011
C -0.0584 -1.8516 0.4869
H 0.3629 3.0342 0.6630
H -1.1285 2.7439 1.5866
H -1.1894 2.7738 -0.1903
H -0.7586 -0.4011 -2.6245
H -1.4831 1.1299 -2.1096
H -1.8736 -0.3611 -1.2456
H 0.5153 -2.7069 0.8533
H -0.8337 -2.2189 -0.1895
H -0.5155 -1.3485 1.3424


