%nproc=12
%mem=12GB
%chk=00000189.chk
#p opt freq b3lyp/6-31g*

C=CCC=C

0 1
C -0.8824 2.0361 1.3725
C -1.2488 2.2548 0.1026
C -1.6753 1.1808 -0.8550
C -0.7386 1.0968 -2.0247
C -1.0920 1.3250 -3.2965
H -0.5878 2.8607 2.0143
H -0.8653 1.0377 1.7983
H -1.2524 3.2750 -0.2766
H -1.7036 0.2028 -0.3599
H -2.6983 1.3954 -1.1867
H 0.2913 0.8220 -1.8051
H -0.3636 1.2434 -4.0975
H -2.1070 1.5987 -3.5671


