%nproc=12
%mem=12GB
%chk=00000102.chk
#p opt freq b3lyp/6-31g*

CN(C)C(=O)N(C)C

0 1
C 2.6152 0.0416 0.2871
N 1.5754 -0.1216 -0.7125
C 1.9203 -0.9971 -1.8240
C 0.7314 0.9673 -0.9129
O 0.9730 2.0753 -0.4334
N -0.4016 0.7311 -1.6868
C -1.1990 -0.4686 -1.4734
C -1.1509 1.9001 -2.1098
H 2.2250 0.5779 1.1578
H 2.9681 -0.9428 0.6076
H 3.4430 0.6144 -0.1423
H 2.0755 -2.0098 -1.4415
H 2.8462 -0.6328 -2.2813
H 1.1551 -1.0153 -2.6026
H -0.6182 -1.2959 -1.0607
H -1.9949 -0.2364 -0.7580
H -1.6414 -0.7732 -2.4260
H -1.7753 1.6395 -2.9691
H -0.4683 2.7049 -2.4001
H -1.7782 2.2465 -1.2826


