%nproc=12
%mem=12GB
%chk=00000135.chk
#p opt freq b3lyp/6-31g*

CC(C)(C)OO

0 1
C -1.4932 -0.2476 1.8056
C -0.7089 0.5109 0.7300
C 0.3890 -0.3994 0.1678
C -1.6230 0.9655 -0.4125
O -0.0248 1.6383 1.3072
O -1.0311 2.5359 1.8605
H -0.8443 -0.5069 2.6498
H -2.3069 0.3623 2.2130
H -1.9319 -1.1684 1.4070
H 0.9912 0.1315 -0.5786
H 1.0812 -0.7098 0.9591
H -0.0280 -1.2978 -0.2993
H -1.0663 1.5672 -1.1397
H -2.4397 1.5964 -0.0451
H -2.0679 0.1113 -0.9337
H -0.8238 3.2950 1.2864


