%nproc=12
%mem=12GB
%chk=00000153.chk
#p opt freq b3lyp/6-31g*

CPC

0 2
C -0.1106 0.3997 0.3522
P -1.5544 -0.3281 -0.5148
C -1.0902 -2.1017 -0.4462
H -0.1216 0.1315 1.4125
H -0.1359 1.4905 0.2760
H 0.8302 0.0511 -0.0835
H -1.1464 -0.0637 -1.8437
H -0.0750 -2.2603 -0.8212
H -1.7748 -2.6943 -1.0597
H -1.1423 -2.4749 0.5806


