%nproc=12
%mem=12GB
%chk=00000367.chk
#p opt freq b3lyp/6-31g*

c1ccc2ccccc2c1

0 1
C -2.1096 -1.2164 0.8501
C -3.0044 -0.3506 0.2281
C -2.5271 0.7082 -0.5462
C -1.1473 0.9143 -0.7080
C -0.6504 1.9746 -1.4834
C 0.7242 2.1654 -1.6340
C 1.6190 1.2996 -1.0120
C 1.1417 0.2408 -0.2377
C -0.2381 0.0347 -0.0760
C -0.7350 -1.0255 0.6995
H -2.4801 -2.0411 1.4531
H -4.0748 -0.4981 0.3446
H -3.2416 1.3742 -1.0244
H -1.3340 2.6614 -1.9771
H 1.0947 2.9901 -2.2371
H 2.6894 1.4472 -1.1285
H 1.8562 -0.4251 0.2405
H -0.0514 -1.7124 1.1932


