%nproc=12
%mem=12GB
%chk=00000194.chk
#p opt freq b3lyp/6-31g*

CCC(C)(C)C(=O)O

0 1
C -2.0258 2.2299 0.9514
C -1.7864 0.9012 0.2425
C -0.7948 -0.0508 0.9543
C -0.6724 -1.3537 0.1442
C -1.2871 -0.4055 2.3676
C 0.5894 0.5833 1.0460
O 1.2423 0.7735 2.0593
O 1.0944 0.9445 -0.1505
H -2.6901 2.8576 0.3482
H -2.5057 2.0865 1.9236
H -1.0925 2.7808 1.1007
H -2.7543 0.3972 0.1238
H -1.4301 1.1188 -0.7727
H -0.3601 -1.1582 -0.8880
H 0.0730 -2.0257 0.5855
H -1.6283 -1.8879 0.1062
H -1.2854 0.4656 3.0317
H -0.6392 -1.1576 2.8336
H -2.3044 -0.8115 2.3427
H 1.9704 1.3250 0.0704


