%nproc=12
%mem=12GB
%chk=00000182.chk
#p opt freq b3lyp/6-31g*

CCCC(C)C

0 1
C -0.4769 -2.4075 -1.2690
C -1.7491 -1.5816 -1.2070
C -1.5519 -0.0721 -1.3840
C -0.7689 0.7008 -0.3039
C -1.1773 0.3287 1.1198
C 0.7472 0.6099 -0.4783
H 0.1386 -2.1284 -2.1296
H 0.1150 -2.2972 -0.3574
H -0.7259 -3.4699 -1.3624
H -2.4107 -1.9239 -2.0130
H -2.2801 -1.7934 -0.2724
H -1.1027 0.1201 -2.3668
H -2.5572 0.3693 -1.4305
H -1.0255 1.7602 -0.4447
H -0.7086 1.0053 1.8428
H -0.8727 -0.6905 1.3773
H -2.2621 0.4066 1.2467
H 1.2479 1.3271 0.1818
H 1.0389 0.8496 -1.5061
H 1.1380 -0.3797 -0.2331


