%nproc=12
%mem=12GB
%chk=00000146.chk
#p opt freq b3lyp/6-31g*

CS(C)=O

0 1
C 2.2776 0.2632 -0.6974
S 1.1151 -0.9269 0.0134
C -0.3801 -0.0254 -0.4605
O 1.1758 -2.1710 -0.8224
H 2.0849 0.3801 -1.7665
H 2.1712 1.2246 -0.1896
H 3.2931 -0.1122 -0.5512
H -0.3939 0.9460 0.0390
H -0.4067 0.1095 -1.5444
H -1.2507 -0.6058 -0.1462


