%nproc=12
%mem=12GB
%chk=00000297.chk
#p opt freq b3lyp/6-31g*

CCc1c(C)ccc(C)c1C

0 1
C -2.5075 -1.1141 1.4058
C -1.6593 -0.5803 0.2586
C -0.1712 -0.7780 0.4978
C 0.5730 0.2243 1.1691
C -0.0499 1.5114 1.6436
C 1.9454 0.0421 1.3776
C 2.5873 -1.1091 0.9341
C 1.8769 -2.1142 0.2679
C 2.6339 -3.3292 -0.2001
C 0.4830 -1.9688 0.0668
C -0.2847 -3.0450 -0.6670
H -2.2766 -0.6063 2.3474
H -2.3481 -2.1854 1.5628
H -3.5698 -0.9588 1.1915
H -1.9611 -1.0561 -0.6813
H -1.8822 0.4812 0.1028
H -0.3471 2.1251 0.7874
H -0.9196 1.3151 2.2766
H 0.6523 2.1004 2.2439
H 2.5320 0.8052 1.8846
H 3.6561 -1.2122 1.1080
H 2.4525 -3.5084 -1.2648
H 3.7151 -3.2023 -0.0775
H 2.3352 -4.2078 0.3802
H 0.2056 -4.0207 -0.6082
H -0.3875 -2.7721 -1.7219
H -1.2774 -3.1975 -0.2355


