%nproc=12
%mem=12GB
%chk=00000327.chk
#p opt freq b3lyp/6-31g*

c1ccc2c(c1)CCCC2

0 1
C 0.5044 -0.6461 2.7340
C -0.8552 -0.3611 2.8186
C -1.5815 -0.0822 1.6612
C -0.9564 -0.0907 0.4051
C 0.4223 -0.3581 0.3218
C 1.1395 -0.6474 1.4925
C 1.1381 -0.4024 -1.0061
C 0.3667 0.2864 -2.1303
C -1.0901 -0.1585 -2.1264
C -1.7692 0.2490 -0.8203
H 1.0711 -0.8675 3.6342
H -1.3509 -0.3557 3.7855
H -2.6426 0.1429 1.7423
H 2.2018 -0.8758 1.4404
H 1.2989 -1.4553 -1.2697
H 2.1233 0.0704 -0.9147
H 0.4183 1.3756 -2.0062
H 0.8319 0.0504 -3.0939
H -1.1417 -1.2477 -2.2505
H -1.6242 0.2869 -2.9732
H -2.7488 -0.2406 -0.7656
H -1.9402 1.3329 -0.8240


