%nproc=12
%mem=12GB
%chk=00000021.chk
#p opt freq b3lyp/6-31g*

CC(C)(C)c1ccccc1

0 1
C 2.3352 -0.3260 -0.2681
C 0.8476 -0.5162 -0.6415
C 0.7735 -1.6990 -1.6313
C 0.0963 -0.8906 0.6545
C 0.2006 0.7286 -1.2734
C 0.9057 1.9251 -1.4876
C 0.2878 3.0399 -2.0650
C -1.0498 2.9845 -2.4417
C -1.7712 1.8136 -2.2413
C -1.1531 0.7005 -1.6645
H 2.7504 -1.2380 0.1775
H 2.9453 -0.0913 -1.1481
H 2.4677 0.4789 0.4643
H 1.2595 -2.5908 -1.2186
H -0.2592 -1.9779 -1.8675
H 1.2726 -1.4542 -2.5764
H 0.5596 -1.7552 1.1442
H -0.9505 -1.1527 0.4660
H 0.1038 -0.0589 1.3690
H 1.9520 2.0234 -1.2125
H 0.8570 3.9531 -2.2193
H -1.5276 3.8511 -2.8897
H -2.8169 1.7620 -2.5328
H -1.7501 -0.1979 -1.5237


