%nproc=12
%mem=12GB
%chk=00000220.chk
#p opt freq b3lyp/6-31g*

COC(=O)CC#N

0 2
C 2.2167 0.9851 1.4548
O 1.1909 1.4583 0.5790
C 0.5042 0.4705 -0.0608
O 0.7287 -0.7277 0.0514
C -0.5650 1.0464 -0.9398
C -1.6987 1.4830 -0.1327
N -2.6098 1.8398 0.4917
H 2.9783 0.4381 0.8904
H 2.6886 1.8530 1.9235
H 1.7888 0.3558 2.2415
H -0.8724 0.2778 -1.6572
H -0.1418 1.8696 -1.5251


