%nproc=12
%mem=12GB
%chk=00000071.chk
#p opt freq b3lyp/6-31g*

CCN=C=O

0 2
C -0.4155 1.3051 -1.0716
C 0.3218 1.1686 0.2499
N 0.5777 -0.2552 0.4938
C 1.1470 -0.4656 1.4978
O 1.7175 -0.6638 2.5058
H -1.3671 0.7639 -1.0458
H -0.6238 2.3576 -1.2868
H 0.1794 0.8963 -1.8950
H -0.2932 1.5987 1.0510
H 1.2625 1.7320 0.1968


