%nproc=12
%mem=12GB
%chk=00000031.chk
#p opt freq b3lyp/6-31g*

CCC(C)=O

0 1
C -1.6498 -0.4377 -1.1193
C -2.0915 -0.3920 0.3295
C -0.9501 -0.7339 1.2620
C 0.0784 0.3362 1.5180
O -0.8518 -1.8508 1.7702
H -0.8817 0.3148 -1.3242
H -1.2311 -1.4177 -1.3713
H -2.4985 -0.2454 -1.7829
H -2.9012 -1.1105 0.4992
H -2.4803 0.5978 0.5905
H -0.4171 1.2504 1.8542
H 0.7641 0.0049 2.3030
H 0.6488 0.5289 0.6067


