%nproc=12
%mem=12GB
%chk=00000048.chk
#p opt freq b3lyp/6-31g*

CCCCOCCCC

0 1
C 3.1348 1.8603 1.0611
C 1.8661 1.2876 1.6733
C 1.6096 -0.1724 1.2892
C 1.4001 -0.4076 -0.2077
O 0.4031 0.4540 -0.7520
C -0.9384 0.0081 -0.5532
C -1.3428 -0.9762 -1.6496
C -2.8222 -1.3579 -1.6095
C -3.2114 -2.1364 -0.3623
H 4.0040 1.2427 1.3081
H 3.0577 1.9310 -0.0279
H 3.3155 2.8690 1.4463
H 1.0104 1.9104 1.3886
H 1.9475 1.3486 2.7652
H 0.7203 -0.5072 1.8357
H 2.4419 -0.7969 1.6350
H 2.3310 -0.2004 -0.7455
H 1.1572 -1.4585 -0.3984
H -1.0632 -0.4176 0.4469
H -1.5764 0.8965 -0.6120
H -0.7265 -1.8808 -1.5924
H -1.1165 -0.5286 -2.6256
H -3.0468 -1.9731 -2.4889
H -3.4427 -0.4575 -1.6863
H -2.5869 -3.0275 -0.2444
H -4.2547 -2.4607 -0.4326
H -3.1153 -1.5242 0.5391


