%nproc=12
%mem=12GB
%chk=00000318.chk
#p opt freq b3lyp/6-31g*

NCCCCCN

0 1
N 0.0551 -1.1896 2.6620
C 0.1294 0.1957 2.2156
C 0.6352 0.3358 0.7775
C -0.2215 -0.3443 -0.2970
C -1.6904 0.0932 -0.3499
C -1.9310 1.5910 -0.5512
N -1.3834 2.0723 -1.8130
H 0.9547 -1.6462 2.5151
H -0.6160 -1.7034 2.0928
H -0.8528 0.6653 2.3294
H 0.8106 0.7355 2.8829
H 1.6514 -0.0752 0.7153
H 0.7313 1.4028 0.5440
H 0.2456 -0.1676 -1.2736
H -0.1904 -1.4310 -0.1513
H -2.1962 -0.2206 0.5710
H -2.1819 -0.4586 -1.1620
H -3.0111 1.7749 -0.5500
H -1.5097 2.1681 0.2782
H -0.3673 1.9995 -1.8027
H -1.5935 3.0647 -1.9153


