%nproc=12
%mem=12GB
%chk=00000088.chk
#p opt freq b3lyp/6-31g*

CCN(C)C(C)=O

0 2
C -0.0319 1.1172 -0.9869
C -0.1621 1.0776 0.5282
N 0.3419 -0.1723 1.0987
C 1.7853 -0.2895 1.2445
C -0.4233 -1.3244 1.2492
C -1.9125 -1.1964 1.0458
O 0.0636 -2.4149 1.5499
H -0.5648 0.2835 -1.4546
H -0.4458 2.0516 -1.3783
H 1.0166 1.0567 -1.2953
H -1.2114 1.2161 0.8030
H 0.3922 1.9095 0.9773
H 2.0601 -1.1547 1.8541
H 2.1748 0.6117 1.7268
H 2.2338 -0.4012 0.2533
H -2.1362 -0.8716 0.0273
H -2.3824 -2.1730 1.1996
H -2.3337 -0.4998 1.7752


