%nproc=12
%mem=12GB
%chk=00000106.chk
#p opt freq b3lyp/6-31g*

CCCCCl

0 2
C -3.3359 -0.7506 -0.8717
C -1.9742 -1.2666 -1.3100
C -0.8028 -0.5909 -0.5904
C -0.6918 0.9189 -0.7819
H -3.4535 -0.8237 0.2140
H -3.4839 0.2920 -1.1677
H -4.1297 -1.3425 -1.3388
H -1.9281 -2.3429 -1.1036
H -1.8749 -1.1567 -2.3954
H 0.1294 -1.0655 -0.9217
H -0.8854 -0.7962 0.4843
H -1.5867 1.4394 -0.4301
H 0.1613 1.3029 -0.2141


