%nproc=12
%mem=12GB
%chk=00000235.chk
#p opt freq b3lyp/6-31g*

N#CCc1ccccc1

0 2
N 1.6430 0.6494 -3.5252
C 1.6914 0.6577 -2.3650
C 1.7883 0.6718 -0.8980
C 0.4446 0.5388 -0.2224
C -0.3170 1.6778 0.0793
C -1.5657 1.5522 0.6901
C -2.0679 0.2899 1.0000
C -1.3244 -0.8489 0.6971
C -0.0753 -0.7272 0.0864
H 2.2707 1.5995 -0.5662
H 2.4455 -0.1394 -0.5611
H 0.0534 2.6723 -0.1619
H -2.1500 2.4397 0.9201
H -3.0420 0.1935 1.4727
H -1.7206 -1.8335 0.9328
H 0.4856 -1.6295 -0.1492


