%nproc=12
%mem=12GB
%chk=00000145.chk
#p opt freq b3lyp/6-31g*

CSc1ccccc1

0 1
C -2.1828 1.1141 -2.9740
S -0.7866 -0.0135 -2.7208
C -1.0629 -0.4643 -1.0171
C -1.1098 0.4968 -0.0022
C -1.3170 0.1122 1.3248
C -1.4702 -1.2356 1.6452
C -1.4102 -2.2001 0.6409
C -1.2026 -1.8157 -0.6857
H -2.0671 2.0205 -2.3742
H -2.2206 1.4029 -4.0279
H -3.1250 0.6230 -2.7153
H -0.9727 1.5504 -0.2299
H -1.3516 0.8644 2.1086
H -1.6287 -1.5350 2.6781
H -1.5213 -3.2524 0.8891
H -1.1527 -2.5796 -1.4581


