%nproc=12
%mem=12GB
%chk=00000054.chk
#p opt freq b3lyp/6-31g*

CC(C)(C)N

0 2
C 0.1536 -0.5531 -0.2263
C -0.5774 0.7417 -0.6004
C 0.0964 1.3959 -1.8112
C -2.0478 0.4448 -0.9136
N -0.5196 1.6765 0.5283
H -0.3048 -1.0344 0.6455
H 0.1263 -1.2720 -1.0532
H 1.2066 -0.3640 0.0129
H 0.0657 0.7329 -2.6834
H 1.1489 1.6268 -1.6087
H -0.4022 2.3318 -2.0897
H -2.5552 -0.0164 -0.0581
H -2.1372 -0.2443 -1.7613
H -2.5947 1.3592 -1.1719
H -0.9391 1.2498 1.3537
H 0.4520 1.8669 0.7714


