%nproc=12
%mem=12GB
%chk=00000265.chk
#p opt freq b3lyp/6-31g*

CC(C)C1CCCC1

0 1
C 1.2030 -3.7395 0.3240
C 0.4121 -2.8696 -0.6578
C -0.8404 -3.6266 -1.1099
C 0.0530 -1.5041 -0.0385
C -0.6737 -0.5579 -0.9972
C -0.5282 0.8186 -0.3578
C 0.7204 0.7496 0.5184
C 1.2678 -0.6652 0.3653
H 2.1611 -3.2780 0.5821
H 0.6417 -3.9025 1.2504
H 1.4230 -4.7190 -0.1143
H 1.0418 -2.7071 -1.5423
H -1.3716 -3.0827 -1.8971
H -0.5756 -4.6086 -1.5169
H -1.5325 -3.7823 -0.2754
H -0.5778 -1.6610 0.8480
H -0.1930 -0.5604 -1.9832
H -1.7263 -0.8239 -1.1344
H -0.4513 1.6038 -1.1167
H -1.4036 1.0461 0.2614
H 1.4648 1.4979 0.2278
H 0.4514 0.9436 1.5632
H 2.0309 -0.6834 -0.4226
H 1.7320 -1.0150 1.2925


