%nproc=12
%mem=12GB
%chk=00000093.chk
#p opt freq b3lyp/6-31g*

O=CNc1ccccc1

0 2
O -0.4661 2.3953 2.8200
C 0.3731 2.5474 1.9454
N 0.6683 1.7430 0.8695
C 0.0548 0.5247 0.5174
C -0.9836 -0.0609 1.2437
C -1.5415 -1.2746 0.8287
C -1.0659 -1.9119 -0.3148
C -0.0307 -1.3361 -1.0460
C 0.5268 -0.1235 -0.6316
H 1.0299 3.4347 1.9488
H 1.4114 2.0657 0.2634
H -1.3841 0.4018 2.1404
H -2.3497 -1.7192 1.4041
H -1.5022 -2.8548 -0.6336
H 0.3433 -1.8301 -1.9390
H 1.3336 0.3036 -1.2209


