%nproc=12
%mem=12GB
%chk=00000205.chk
#p opt freq b3lyp/6-31g*

NCCNCCN

0 2
N 2.2899 -0.4562 -0.6818
C 1.6769 0.4973 0.2427
C 0.1785 0.7407 -0.0414
N -0.6416 -0.4768 0.0622
C -1.0524 -0.9673 -1.2632
C -1.8041 -2.3100 -1.1561
N -1.1585 -3.2450 -0.2218
H 3.2278 -0.6871 -0.3583
H 1.7599 -1.3278 -0.6720
H 1.7972 0.1263 1.2673
H 2.2134 1.4498 0.1771
H -0.1915 1.4479 0.7100
H 0.0562 1.2344 -1.0138
H -0.0905 -1.2179 0.4964
H -0.1738 -1.1151 -1.9015
H -1.7043 -0.2349 -1.7532
H -1.8643 -2.7712 -2.1475
H -2.8295 -2.1304 -0.8126
H -1.6782 -4.1225 -0.2351
H -1.2945 -2.8699 0.7188


