%nproc=12
%mem=12GB
%chk=00000107.chk
#p opt freq b3lyp/6-31g*

CC(C)Cl

0 2
C -0.1847 -0.7259 0.9970
C -0.1189 -1.5243 -0.2968
C -1.1116 -1.0058 -1.3270
H 0.0449 0.3322 0.8298
H -1.1860 -0.7863 1.4366
H 0.5254 -1.1146 1.7350
H -0.3248 -2.5790 -0.0876
H -0.9172 0.0418 -1.5823
H -2.1353 -1.0729 -0.9434
H -1.0638 -1.5944 -2.2495


