%nproc=12
%mem=12GB
%chk=00000078.chk
#p opt freq b3lyp/6-31g*

O=[N+]([O-])c1ccccc1

0 2
O -0.1980 -2.9287 0.8537
N -0.1435 -2.1596 -0.1169
O -0.2298 -2.5166 -1.3008
C 0.0354 -0.7280 0.1543
C 0.1024 0.1777 -0.9131
C 0.2726 1.5379 -0.6490
C 0.3748 1.9877 0.6688
C 0.3077 1.0828 1.7299
C 0.1377 -0.2797 1.4783
H 0.0244 -0.1567 -1.9455
H 0.3257 2.2489 -1.4706
H 0.5074 3.0488 0.8698
H 0.3881 1.4407 2.7540
H 0.0873 -0.9719 2.3161


