%nproc=12
%mem=12GB
%chk=00000294.chk
#p opt freq b3lyp/6-31g*

Cc1cccc(C)c1C

0 1
C -2.8911 -1.2942 0.4961
C -1.8040 -0.5710 -0.2537
C -2.0424 -0.2029 -1.5869
C -1.0740 0.4713 -2.3233
C 0.1444 0.7930 -1.7345
C 0.4145 0.4393 -0.4035
C 1.7485 0.8186 0.1829
C -0.5532 -0.2774 0.3404
C -0.2799 -0.6650 1.7734
H -3.8371 -1.2810 -0.0561
H -3.0783 -0.8134 1.4617
H -2.6095 -2.3401 0.6535
H -2.9927 -0.4386 -2.0610
H -1.2712 0.7515 -3.3543
H 0.8866 1.3281 -2.3229
H 2.2921 1.5102 -0.4699
H 1.6164 1.3246 1.1447
H 2.3689 -0.0729 0.3175
H 0.7821 -0.8659 1.9432
H -0.8006 -1.5867 2.0501
H -0.6009 0.1389 2.4429


