%nproc=12
%mem=12GB
%chk=00000376.chk
#p opt freq b3lyp/6-31g*

c1ccc2cc3ccccc3cc2c1

0 1
C 0.2030 -2.0583 3.4759
C 0.3087 -3.1243 2.5880
C 0.0130 -2.9376 1.2368
C -0.3924 -1.6813 0.7564
C -0.6934 -1.4781 -0.6007
C -1.0988 -0.2215 -1.0805
C -1.3999 -0.0175 -2.4373
C -1.8014 1.2369 -2.8993
C -1.9071 2.3028 -2.0114
C -1.6114 2.1162 -0.6602
C -1.2060 0.8599 -0.1798
C -0.9051 0.6567 1.1773
C -0.4997 -0.5999 1.6571
C -0.1986 -0.8039 3.0140
H 0.4327 -2.2013 4.5285
H 0.6212 -4.1019 2.9455
H 0.1016 -3.7831 0.5583
H -0.6107 -2.3120 -1.2952
H -1.3232 -0.8384 -3.1468
H -2.0311 1.3799 -3.9519
H -2.2196 3.2805 -2.3689
H -1.7000 2.9616 0.0183
H -0.9878 1.4905 1.8719
H -0.2753 0.0170 3.7234


