%nproc=12
%mem=12GB
%chk=00000264.chk
#p opt freq b3lyp/6-31g*

CCC1CCCCC1

0 1
C -1.5780 -1.4859 1.0885
C -0.3387 -0.9251 1.7756
C 0.2796 0.2729 1.0239
C 0.9383 -0.1438 -0.3098
C 2.4650 -0.0373 -0.3150
C 3.0627 -0.5398 0.9913
C 2.5517 0.2418 2.2016
C 1.2708 1.0279 1.9226
H -1.3485 -1.8929 0.1001
H -2.3440 -0.7125 0.9724
H -2.0053 -2.2948 1.6900
H 0.3986 -1.7271 1.8959
H -0.6302 -0.6095 2.7850
H -0.5402 0.9663 0.7916
H 0.5481 0.4893 -1.1166
H 0.6616 -1.1698 -0.5769
H 2.7628 1.0059 -0.4784
H 2.8680 -0.6110 -1.1574
H 4.1566 -0.4840 0.9520
H 2.8139 -1.6013 1.1146
H 2.3912 -0.4541 3.0339
H 3.3248 0.9426 2.5398
H 1.5368 1.9736 1.4316
H 0.7978 1.3076 2.8716


