%nproc=12
%mem=12GB
%chk=00000228.chk
#p opt freq b3lyp/6-31g*

C=CC(=O)OCC

0 1
C 0.9759 3.2627 -0.7928
C 1.5122 2.5082 0.1756
C 0.9717 1.2148 0.6481
O 1.5140 0.5738 1.5356
O -0.1540 0.8695 -0.0215
C -0.7552 -0.3722 0.3717
C -0.1340 -1.5217 -0.3995
H 1.4392 4.2016 -1.0786
H 0.0735 2.9716 -1.3213
H 2.4155 2.8251 0.6861
H -0.6791 -0.5279 1.4540
H -1.8211 -0.3017 0.1315
H -0.2198 -1.3520 -1.4778
H 0.9334 -1.6137 -0.1755
H -0.6257 -2.4663 -0.1505


