%nproc=12
%mem=12GB
%chk=00000324.chk
#p opt freq b3lyp/6-31g*

c1ccc2c(c1)=c1ccccc1=2

0 1
C 1.5582 2.8601 -1.3568
C 2.5252 2.2579 -0.4302
C 2.3457 1.0401 0.1235
C 1.0772 0.2705 -0.2410
C 0.1353 0.8571 -1.1437
C 0.4166 2.2416 -1.7253
C -0.6380 -0.2177 -1.0353
C -1.9065 -0.9874 -1.3997
C -2.0859 -2.2051 -0.8461
C -1.1190 -2.8073 0.0806
C 0.0226 -2.1889 0.4491
C 0.3039 -0.8043 -0.1326
H 1.7971 3.8451 -1.7467
H 3.4128 2.8388 -0.1982
H 3.0630 0.6024 0.8060
H -0.2917 2.6918 -2.4091
H -2.6238 -0.5497 -2.0822
H -2.9736 -2.7860 -1.0780
H -1.3579 -3.7923 0.4704
H 0.7309 -2.6390 1.1328


