%nproc=12
%mem=12GB
%chk=00000080.chk
#p opt freq b3lyp/6-31g*

CCCCON=O

0 2
C -2.5032 -0.5799 -0.5910
C -1.3687 -1.2087 0.2020
C -0.1012 -0.3616 0.1326
C 1.0404 -0.9884 0.9269
O 2.1804 -0.1407 0.8116
N 3.2593 -0.7178 1.5529
O 4.2700 -0.0127 1.4793
H -2.2342 -0.4782 -1.6472
H -3.4008 -1.2029 -0.5275
H -2.7506 0.4129 -0.2019
H -1.1682 -2.2121 -0.1913
H -1.6817 -1.3260 1.2461
H -0.2977 0.6479 0.5150
H 0.2117 -0.2312 -0.9110
H 1.2743 -1.9824 0.5255
H 0.7540 -1.0846 1.9817


