%nproc=12
%mem=12GB
%chk=00000221.chk
#p opt freq b3lyp/6-31g*

CCC(=O)CC(=O)OC

0 1
C -0.5333 2.5431 1.2847
C 0.0369 1.7090 0.1511
C 0.9682 0.6128 0.6447
O 1.1474 0.3935 1.8438
C 1.7302 -0.1618 -0.3968
C 0.8681 -0.7149 -1.4867
O 1.0273 -0.4647 -2.6739
O -0.0958 -1.5292 -0.9800
C -0.9492 -2.1129 -1.9665
H 0.2654 3.0209 1.8617
H -1.1196 1.9243 1.9721
H -1.1864 3.3273 0.8896
H -0.7842 1.2474 -0.4060
H 0.6017 2.3578 -0.5267
H 2.4781 0.5074 -0.8354
H 2.2659 -0.9923 0.0751
H -0.3693 -2.7363 -2.6542
H -1.4918 -1.3340 -2.5113
H -1.6764 -2.7473 -1.4525


