%nproc=12
%mem=12GB
%chk=00000028.chk
#p opt freq b3lyp/6-31g*

Oc1ccccc1

0 1
O 0.3881 1.9403 2.6073
C 0.4471 1.0697 1.5592
C 0.0795 1.5414 0.3040
C 0.1249 0.6849 -0.7957
C 0.5379 -0.6379 -0.6318
C 0.9054 -1.1037 0.6319
C 0.8606 -0.2480 1.7339
H 0.6709 1.4740 3.4106
H -0.2411 2.5721 0.1831
H -0.1614 1.0490 -1.7787
H 0.5733 -1.3054 -1.4889
H 1.2267 -2.1345 0.7566
H 1.1490 -0.6235 2.7102


