%nproc=12
%mem=12GB
%chk=00000323.chk
#p opt freq b3lyp/6-31g*

C1=Cc2ccccc2C1

0 1
C -1.3321 -0.6114 -0.9791
C -0.1061 -0.2056 -1.3477
C 0.6337 0.1163 -0.1395
C 1.9301 0.5744 0.0089
C 2.4025 0.8081 1.3038
C 1.5792 0.5823 2.4206
C 0.2707 0.1195 2.2612
C -0.1860 -0.1083 0.9744
C -1.5259 -0.5981 0.5190
H -2.1068 -0.9174 -1.6677
H 0.2852 -0.1236 -2.3484
H 2.5661 0.7488 -0.8520
H 3.4180 1.1685 1.4498
H 1.9667 0.7706 3.4191
H -0.3650 -0.0549 3.1227
H -1.7324 -1.6041 0.8950
H -2.3224 0.0953 0.8035


