%nproc=12
%mem=12GB
%chk=00000022.chk
#p opt freq b3lyp/6-31g*

C=Cc1ccccc1

0 1
C 2.2766 0.2167 2.0748
C 1.6166 -0.7049 1.3615
C 0.8899 -0.4328 0.1137
C 1.3285 0.5149 -0.8204
C 0.6242 0.7218 -2.0098
C -0.5207 -0.0235 -2.2824
C -0.9591 -0.9796 -1.3692
C -0.2542 -1.1867 -0.1805
H 2.3194 1.2608 1.7831
H 2.7828 -0.0610 2.9941
H 1.5851 -1.7311 1.7205
H 2.2295 1.0953 -0.6391
H 0.9742 1.4620 -2.7246
H -1.0677 0.1373 -3.2076
H -1.8492 -1.5662 -1.5809
H -0.6131 -1.9380 0.5193


