%nproc=12
%mem=12GB
%chk=00000240.chk
#p opt freq b3lyp/6-31g*

CSCc1ccccc1

0 1
C 0.1197 -3.0738 0.6628
S -1.2543 -2.6801 1.7728
C -1.9497 -1.2447 0.8947
C -1.0134 -0.0656 0.8188
C -0.6800 0.6591 1.9731
C 0.1852 1.7519 1.9004
C 0.7246 2.1344 0.6741
C 0.3996 1.4252 -0.4805
C -0.4652 0.3314 -0.4099
H -0.2376 -3.1971 -0.3629
H 0.8850 -2.2947 0.6996
H 0.5766 -4.0140 0.9836
H -2.2624 -1.5644 -0.1057
H -2.8633 -0.9362 1.4157
H -1.0910 0.3698 2.9385
H 0.4387 2.3033 2.8021
H 1.3983 2.9854 0.6186
H 0.8199 1.7247 -1.4371
H -0.7073 -0.2092 -1.3221


