%nproc=12
%mem=12GB
%chk=00000147.chk
#p opt freq b3lyp/6-31g*

CS(C)(=O)=O

0 1
C -1.3299 2.0944 0.4742
S -1.1144 2.0603 -1.2882
C -0.5189 0.4141 -1.5867
O -2.4246 2.1759 -1.8981
O -0.0495 2.9853 -1.6233
H -2.0572 1.3306 0.7554
H -1.6993 3.0834 0.7530
H -0.3662 1.9068 0.9510
H 0.4209 0.2762 -1.0490
H -0.3559 0.3004 -2.6604
H -1.2700 -0.3001 -1.2446


