%nproc=12
%mem=12GB
%chk=00000202.chk
#p opt freq b3lyp/6-31g*

OCCO

0 1
O -0.1611 -1.1791 1.4842
C 1.0026 -1.0339 0.6821
C 0.7186 -0.1917 -0.5575
O 1.8945 -0.0017 -1.3320
H -0.4219 -0.2955 1.7951
H 1.3523 -2.0297 0.3907
H 1.7965 -0.5827 1.2871
H -0.0356 -0.6811 -1.1824
H 0.3144 0.7877 -0.2799
H 2.5314 0.4955 -0.7910


