%nproc=12
%mem=12GB
%chk=00000333.chk
#p opt freq b3lyp/6-31g*

C1CC12CC2

0 1
C -0.3726 0.4112 -1.7869
C -1.3642 -0.3986 -0.9401
C -0.3644 0.4689 -0.3309
C 0.6353 0.3459 0.7222
C -0.3560 1.5171 0.6814
H 0.4214 -0.1306 -2.2855
H -0.7577 1.2624 -2.3340
H -2.3981 -0.0772 -0.9332
H -1.2190 -1.4702 -0.8846
H 1.6693 0.5545 0.4779
H 0.4899 -0.4087 1.4850
H 0.0294 2.4920 0.4103
H -1.1501 1.5288 1.4174


