%nproc=12
%mem=12GB
%chk=00000152.chk
#p opt freq b3lyp/6-31g*

O=S(=O)(c1ccccc1)c1ccccc1

0 1
O 1.9259 -1.2292 -1.0206
S 1.6305 -0.2787 0.0367
O 2.2815 1.0191 0.0611
C 1.9822 -1.0976 1.5753
C 1.6062 -2.4349 1.7353
C 1.8804 -3.0835 2.9389
C 2.5309 -2.4004 3.9682
C 2.9150 -1.0689 3.7973
C 2.6449 -0.4120 2.5969
C -0.1212 0.0264 0.0261
C -0.9565 -0.7225 -0.8072
C -2.3282 -0.4700 -0.8052
C -2.8549 0.5273 0.0179
C -2.0133 1.2805 0.8387
C -0.6406 1.0352 0.8434
H 1.1115 -2.9758 0.9318
H 1.5938 -4.1237 3.0746
H 2.7470 -2.9101 4.9044
H 3.4306 -0.5457 4.5993
H 2.9564 0.6221 2.4682
H -0.5530 -1.4944 -1.4588
H -2.9880 -1.0461 -1.4498
H -3.9247 0.7238 0.0135
H -2.4287 2.0632 1.4691
H 0.0121 1.6341 1.4743


