%nproc=12
%mem=12GB
%chk=00000016.chk
#p opt freq b3lyp/6-31g*

O=C(c1ccccc1)c1ccccc1

0 1
O -2.2741 1.5459 0.9053
C -1.4083 0.7496 0.5511
C -0.9463 -0.2908 1.5047
C -0.6026 -1.5795 1.0780
C -0.1847 -2.5325 2.0093
C -0.1214 -2.2058 3.3642
C -0.4839 -0.9295 3.7944
C -0.9023 0.0260 2.8674
C -0.8482 0.8500 -0.8204
C -1.6917 1.2685 -1.8561
C -1.1980 1.3853 -3.1562
C 0.1405 1.0970 -3.4218
C 0.9900 0.7006 -2.3884
C 0.5004 0.5822 -1.0860
H -0.6724 -1.8613 0.0306
H 0.0821 -3.5339 1.6802
H 0.1997 -2.9509 4.0883
H -0.4478 -0.6796 4.8518
H -1.1954 1.0174 3.2076
H -2.7338 1.5051 -1.6502
H -1.8563 1.7076 -3.9591
H 0.5249 1.1932 -4.4345
H 2.0370 0.4938 -2.5967
H 1.1840 0.2996 -0.2896


