%nproc=12
%mem=12GB
%chk=00000101.chk
#p opt freq b3lyp/6-31g*

CNC(=O)N(C)C

0 1
C -0.9310 1.6744 -3.2643
N -0.6594 1.7891 -1.8525
C -0.2889 0.6714 -1.1458
O -0.2061 -0.4359 -1.6701
N -0.0116 0.9022 0.1962
C -0.5712 2.0148 0.9517
C 0.3938 -0.2474 0.9870
H 0.0007 1.4491 -3.7906
H -1.6528 0.8721 -3.4412
H -1.3365 2.6252 -3.6176
H -0.1583 2.6183 -1.5738
H 0.1329 2.3013 1.7384
H -1.5122 1.6868 1.4044
H -0.7756 2.8899 0.3330
H 0.9710 -0.9564 0.3860
H 1.0150 0.0873 1.8228
H -0.5013 -0.7488 1.3676


