%nproc=12
%mem=12GB
%chk=00000083.chk
#p opt freq b3lyp/6-31g*

CCNC=O

0 2
C -0.5999 -0.8888 -0.7393
C 0.3085 -1.2185 0.4314
N 0.2300 -0.2126 1.4683
C 0.9779 0.9355 1.4240
O 1.7944 1.2260 0.5628
H -0.5423 -1.6737 -1.4997
H -1.6416 -0.8018 -0.4131
H -0.3164 0.0608 -1.2050
H 0.0152 -2.1724 0.8806
H 1.3453 -1.3029 0.0890
H -0.4666 -0.3101 2.1953
H 0.7597 1.5982 2.2780


