%nproc=12
%mem=12GB
%chk=00000045.chk
#p opt freq b3lyp/6-31g*

CC(=O)Oc1ccccc1

0 1
C -2.5309 1.1374 1.2077
C -2.2854 0.2746 0.0054
O -2.8187 -0.8103 -0.1820
O -1.3751 0.9198 -0.8248
C -1.0380 0.2249 -1.9914
C -0.3191 -0.9684 -1.9337
C 0.0458 -1.6016 -3.1214
C -0.2943 -1.0322 -4.3506
C -0.9966 0.1741 -4.3964
C -1.3654 0.8116 -3.2123
H -2.9589 2.0936 0.8965
H -1.5951 1.2917 1.7506
H -3.2408 0.6376 1.8730
H -0.0516 -1.4095 -0.9786
H 0.5944 -2.5393 -3.0900
H -0.0097 -1.5292 -5.2747
H -1.2544 0.6162 -5.3552
H -1.9041 1.7534 -3.2440


