%nproc=12
%mem=12GB
%chk=00000133.chk
#p opt freq b3lyp/6-31g*

CCOC(C)CO

0 1
C -1.0822 2.0451 -0.1420
C -0.2975 0.9699 -0.8683
O 0.0160 -0.0605 0.0664
C 0.6839 -1.1877 -0.5261
C 2.1547 -0.8644 -0.7783
C 0.5384 -2.3523 0.4647
O 1.0916 -2.0051 1.7337
H -1.3484 2.8599 -0.8211
H -0.4978 2.4539 0.6889
H -1.9994 1.6291 0.2878
H -0.9008 0.5605 -1.6856
H 0.6200 1.4025 -1.2780
H 0.1895 -1.4662 -1.4645
H 2.7068 -1.7559 -1.0918
H 2.2604 -0.1132 -1.5672
H 2.6301 -0.4490 0.1167
H 1.0410 -3.2532 0.1005
H -0.5197 -2.5829 0.6262
H 0.7562 -1.1045 1.9146


