%nproc=12
%mem=12GB
%chk=00000007.chk
#p opt freq b3lyp/6-31g*

CC(C)=C(C)C

0 1
C 0.4547 1.9168 -0.3898
C 0.8303 0.6259 -1.0780
C 0.8859 0.7747 -2.5800
C 1.0879 -0.5326 -0.4232
C 1.5674 -1.7944 -1.1008
C 0.9285 -0.7105 1.0682
H 1.0009 2.7546 -0.8381
H -0.6174 2.1065 -0.5028
H 0.7015 1.9312 0.6743
H 0.0246 1.3538 -2.9325
H 0.8476 -0.1775 -3.1139
H 1.7982 1.3038 -2.8732
H 0.7468 -2.5144 -1.1815
H 2.3711 -2.2540 -0.5142
H 1.9813 -1.6236 -2.0972
H 1.9089 -0.7092 1.5551
H 0.3061 0.0566 1.5345
H 0.4398 -1.6678 1.2825


