%nproc=12
%mem=12GB
%chk=00000380.chk
#p opt freq b3lyp/6-31g*

c1cc2ccc3cccc4ccc(c1)c2c34

0 1
C 0.1253 -1.6391 -2.4097
C 1.1446 -1.8619 -1.4845
C 1.2534 -1.0648 -0.3354
C 2.2709 -1.2738 0.6055
C 2.3660 -0.4712 1.7454
C 1.4461 0.5611 1.9740
C 1.5283 1.3752 3.1133
C 0.6038 2.3977 3.3240
C -0.4155 2.6205 2.3988
C -0.5243 1.8234 1.2497
C -1.5418 2.0324 0.3089
C -1.6370 1.2298 -0.8310
C -0.7171 0.1975 -1.0597
C -0.7992 -0.6166 -2.1990
C 0.3163 -0.0276 -0.1208
C 0.4128 0.7862 1.0351
H 0.0513 -2.2634 -3.2964
H 1.8554 -2.6645 -1.6674
H 3.0016 -2.0661 0.4591
H 3.1682 -0.6608 2.4551
H 2.3157 1.2179 3.8470
H 0.6778 3.0220 4.2107
H -1.1264 3.4231 2.5817
H -2.2725 2.8247 0.4552
H -2.4391 1.4194 -1.5408
H -1.5866 -0.4593 -2.9327


