%nproc=12
%mem=12GB
%chk=00000069.chk
#p opt freq b3lyp/6-31g*

N#Cc1ccccc1

0 2
N 1.5028 1.3954 -2.0248
C 0.6939 0.7742 -1.4707
C -0.3052 0.0071 -0.7863
C 0.0728 -0.9687 0.1427
C -0.9015 -1.7151 0.8085
C -2.2529 -1.4885 0.5479
C -2.6339 -0.5168 -0.3774
C -1.6620 0.2312 -1.0448
H 1.1245 -1.1533 0.3533
H -0.6072 -2.4733 1.5304
H -3.0109 -2.0705 1.0672
H -3.6883 -0.3422 -0.5786
H -1.9699 0.9869 -1.7649


