%nproc=12
%mem=12GB
%chk=00000251.chk
#p opt freq b3lyp/6-31g*

COC(=O)c1ccco1

0 1
C 3.9273 2.1656 0.5667
O 2.8852 1.2024 0.4227
C 2.0179 1.4666 -0.5975
O 2.0998 2.4374 -1.3422
C 0.9978 0.4466 -0.6734
C -0.0724 0.3086 -1.5402
C -0.7544 -0.8745 -1.1677
C -0.0642 -1.3907 -0.0975
O 0.9964 -0.6019 0.2109
H 3.5100 3.1524 0.7905
H 4.5452 2.2010 -0.3361
H 4.5586 1.8595 1.4054
H -0.3201 0.9900 -2.3433
H -1.6388 -1.2988 -1.6220
H -0.1912 -2.2658 0.5249


