%nproc=12
%mem=12GB
%chk=00000168.chk
#p opt freq b3lyp/6-31g*

CC1(C)CCCCC1

0 1
C -1.7914 -0.5262 0.4292
C -0.9460 -0.5303 -0.8592
C -1.0132 -1.9452 -1.4646
C 0.5280 -0.1892 -0.5425
C 0.7412 1.2702 -0.1408
C 0.1722 2.2295 -1.1803
C -1.2945 1.9393 -1.4789
C -1.5110 0.4810 -1.8826
H -1.4090 -1.2571 1.1509
H -2.8337 -0.7888 0.2145
H -1.7964 0.4490 0.9243
H -2.0453 -2.2239 -1.7054
H -0.4275 -2.0109 -2.3884
H -0.6183 -2.6929 -0.7675
H 0.9062 -0.8413 0.2548
H 1.1465 -0.3942 -1.4268
H 1.8139 1.4603 -0.0188
H 0.2784 1.4642 0.8335
H 0.2800 3.2616 -0.8281
H 0.7542 2.1476 -2.1067
H -1.9051 2.1819 -0.6017
H -1.6379 2.5949 -2.2876
H -1.0283 0.3207 -2.8563
H -2.5828 0.3055 -2.0384


