%nproc=12
%mem=12GB
%chk=00000203.chk
#p opt freq b3lyp/6-31g*

CCC(N)CO

0 2
C -1.1154 1.7453 -0.7719
C -0.3011 0.6085 -0.1695
C -0.7608 -0.7836 -0.6365
N 0.1576 -1.7847 -0.0551
C -2.1955 -1.1340 -0.1938
O -2.2605 -1.2275 1.2280
H -0.6740 2.7087 -0.4967
H -2.1461 1.7400 -0.4062
H -1.1328 1.6809 -1.8643
H -0.3391 0.6838 0.9245
H 0.7480 0.7579 -0.4566
H -0.6992 -0.8378 -1.7297
H -0.0547 -2.7033 -0.4471
H 1.1130 -1.5726 -0.3455
H -2.4947 -2.1051 -0.6039
H -2.9257 -0.3936 -0.5303
H -1.3911 -1.5988 1.4862


