%nproc=12
%mem=12GB
%chk=00000214.chk
#p opt freq b3lyp/6-31g*

CC(S)CC(=O)O

0 1
C 0.5004 -0.1098 1.7526
C 0.1809 -0.4968 0.3099
S -0.8636 -2.0013 0.3241
C -0.5448 0.6114 -0.4481
C 0.3444 1.8043 -0.6443
O 0.2446 2.8764 -0.0723
O 1.3184 1.5921 -1.5474
H 1.1823 0.7467 1.7835
H 0.9947 -0.9303 2.2851
H -0.4019 0.1669 2.3097
H 1.1144 -0.7572 -0.2013
H -1.8822 -1.4853 1.0288
H -1.4425 0.9441 0.0877
H -0.8737 0.2808 -1.4413
H 1.8048 2.4430 -1.5867


