%nproc=12
%mem=12GB
%chk=00000138.chk
#p opt freq b3lyp/6-31g*

CC(C)(C)S

0 1
C 1.0852 -1.0826 -0.0030
C 0.6347 0.1927 -0.7211
C -0.2056 -0.1565 -1.9528
C -0.1653 1.0850 0.2322
S 2.1227 1.1173 -1.2671
H 1.6665 -1.7373 -0.6629
H 0.2188 -1.6587 0.3429
H 1.6977 -0.8580 0.8781
H -0.5321 0.7416 -2.4901
H -1.1085 -0.7064 -1.6621
H 0.3471 -0.7907 -2.6559
H -1.0660 0.5674 0.5827
H 0.4177 1.3572 1.1200
H -0.4931 2.0105 -0.2557
H 2.6261 0.1569 -2.0566


