%nproc=12
%mem=12GB
%chk=00000357.chk
#p opt freq b3lyp/6-31g*

C1=CC(c2ccccc2)=NC1

0 2
C -0.0986 -0.7964 3.4325
C 0.5905 0.0131 2.6304
C 0.5124 -0.6725 1.3340
C 1.1584 -0.1111 0.1201
C 1.8913 1.0825 0.1315
C 2.4774 1.5619 -1.0448
C 2.3370 0.8554 -2.2379
C 1.6108 -0.3326 -2.2597
C 1.0246 -0.8135 -1.0867
N -0.1559 -1.7959 1.3179
C -0.6200 -1.9801 2.7042
H -0.2673 -0.6268 4.4854
H 1.0766 0.9358 2.8803
H 2.0261 1.6622 1.0377
H 3.0453 2.4891 -1.0291
H 2.7936 1.2302 -3.1504
H 1.4985 -0.8877 -3.1875
H 0.4601 -1.7436 -1.1195
H -0.2153 -2.9091 3.1172
H -1.7133 -2.0138 2.7346


