%nproc=12
%mem=12GB
%chk=00000338.chk
#p opt freq b3lyp/6-31g*

O=C(c1ccccc1)c1ccccc1

0 1
O 0.9888 -0.9694 1.9537
C 0.6473 -0.4524 0.8929
C 0.7264 -1.2465 -0.3593
C -0.2253 -1.1115 -1.3776
C -0.1214 -1.8867 -2.5345
C 0.9216 -2.8033 -2.6710
C 1.8585 -2.9552 -1.6490
C 1.7585 -2.1829 -0.4910
C 0.1652 0.9521 0.8929
C -0.5516 1.4110 2.0042
C -1.0112 2.7280 2.0448
C -0.7451 3.5920 0.9827
C -0.0122 3.1449 -0.1171
C 0.4496 1.8277 -0.1622
H -1.0607 -0.4234 -1.2776
H -0.8597 -1.7839 -3.3261
H 0.9980 -3.4094 -3.5707
H 2.6630 -3.6794 -1.7498
H 2.4845 -2.3119 0.3094
H -0.7512 0.7427 2.8397
H -1.5704 3.0807 2.9078
H -1.0997 4.6194 1.0180
H 0.2081 3.8267 -0.9350
H 1.0430 1.5062 -1.0141


