%nproc=12
%mem=12GB
%chk=00000047.chk
#p opt freq b3lyp/6-31g*

CCCCOC

0 1
C -3.1952 0.0557 -0.9916
C -2.3383 0.9196 -0.0795
C -1.9657 0.2318 1.2368
C -1.1200 -1.0322 1.0748
O 0.0344 -0.8273 0.2636
C 1.0768 -0.1317 0.9336
H -2.6441 -0.8193 -1.3486
H -3.5079 0.6309 -1.8689
H -4.0960 -0.2890 -0.4740
H -2.8925 1.8365 0.1543
H -1.4337 1.2292 -0.6151
H -1.4174 0.9569 1.8493
H -2.8769 -0.0186 1.7932
H -0.8266 -1.4268 2.0549
H -1.7162 -1.8133 0.5914
H 1.3695 -0.6595 1.8463
H 0.7757 0.8926 1.1684
H 1.9418 -0.0888 0.2660


