%nproc=12
%mem=12GB
%chk=00000275.chk
#p opt freq b3lyp/6-31g*

SC1CCCCC1

0 1
S -0.9516 -2.5426 0.5064
C 0.2670 -1.1740 0.5040
C 0.1747 -0.3439 1.7901
C -1.0289 0.5981 1.8293
C -1.1019 1.4731 0.5820
C -1.0850 0.6436 -0.6980
C 0.1184 -0.2983 -0.7461
H -2.0585 -1.7881 0.5446
H 1.2493 -1.6593 0.4735
H 0.1706 -0.9908 2.6759
H 1.0845 0.2668 1.8673
H -1.9564 0.0232 1.9304
H -0.9611 1.2366 2.7178
H -2.0108 2.0845 0.6131
H -0.2523 2.1672 0.5756
H -1.0562 1.3136 -1.5651
H -2.0166 0.0719 -0.7785
H 0.0745 -0.9130 -1.6535
H 1.0244 0.3155 -0.8416


