%nproc=12
%mem=12GB
%chk=00000041.chk
#p opt freq b3lyp/6-31g*

CCOC(=O)C(C)(C)C

0 1
C 2.0814 2.2645 -2.1633
C 1.6977 2.3852 -0.7014
O 0.8099 1.3070 -0.3829
C 0.3822 1.2933 0.9124
O 0.7107 2.1180 1.7555
C -0.5589 0.1123 1.1640
C -1.7872 0.2341 0.2524
C -1.0203 0.1282 2.6300
C 0.1843 -1.2014 0.8883
H 2.7617 3.0692 -2.4559
H 1.1913 2.3045 -2.7999
H 2.5676 1.3024 -2.3560
H 1.1936 3.3426 -0.5291
H 2.5957 2.3216 -0.0768
H -2.5093 -0.5658 0.4508
H -2.2951 1.1938 0.4023
H -1.5116 0.1751 -0.8066
H -0.1682 0.0515 3.3155
H -1.5499 1.0576 2.8699
H -1.6971 -0.7068 2.8433
H 1.0940 -1.2740 1.4954
H 0.4881 -1.2810 -0.1616
H -0.4451 -2.0688 1.1166


