%nproc=12
%mem=12GB
%chk=00000310.chk
#p opt freq b3lyp/6-31g*

O=C(O)CCCC(=O)O

0 1
O -0.7375 2.7874 -0.6207
C -1.1704 1.7440 -0.1620
O -2.3896 1.6911 0.4051
C -0.4833 0.4095 -0.1882
C -0.8405 -0.3470 -1.4639
C -0.2253 -1.7408 -1.5079
C 1.2687 -1.6925 -1.6531
O 2.0822 -1.8293 -0.7553
O 1.6631 -1.4458 -2.9151
H -2.7213 2.6116 0.3431
H 0.5951 0.5877 -0.1140
H -0.7697 -0.1571 0.7054
H -1.9312 -0.4425 -1.5347
H -0.5232 0.2361 -2.3376
H -0.6326 -2.3117 -2.3505
H -0.4691 -2.3095 -0.6034
H 2.6419 -1.4242 -2.8635


